<?xml version="1.0" ?><additional>
    <inductionLoop id="parkingArea_-100400946_0_293" lane="-100400946_0" pos="22.04" freq="90000" file="out.xml" friendlyPos="true"/>
  <inductionLoop id="parkingArea_-111089307#4_0_200" lane="-111089307#4_0" pos="40.59" freq="90000" file="out.xml" friendlyPos="true"/>
  <inductionLoop id="parkingArea_-111550911#2_0_98" lane="-111550911#2_0" pos="1.10000000000000142" freq="90000" file="out.xml" friendlyPos="true"/>
  <inductionLoop id="parkingArea_-111560681#2_0_153" lane="-111560681#2_0" pos="36.55" freq="90000" file="out.xml" friendlyPos="true"/>
  <inductionLoop id="parkingArea_-111586254#3_0_269" lane="-111586254#3_0" pos="12.439999999999998" freq="90000" file="out.xml" friendlyPos="true"/>
  <inductionLoop id="parkingArea_-133755923#0_0_161" lane="-133755923#0_0" pos="88.1" freq="90000" file="out.xml" friendlyPos="true"/>
  <inductionLoop id="parkingArea_-133781759#1_0_346" lane="-133781759#1_0" pos="1" freq="90000" file="out.xml" friendlyPos="true"/>
  <inductionLoop id="parkingArea_-141688972#1_0_145" lane="-141688972#1_0" pos="75.11" freq="90000" file="out.xml" friendlyPos="true"/>
  <inductionLoop id="parkingArea_-141688972#2_0_130" lane="-141688972#2_0" pos="90.8" freq="90000" file="out.xml" friendlyPos="true"/>
  <inductionLoop id="parkingArea_-143617587_0_133" lane="-143617587_0" pos="84.84" freq="90000" file="out.xml" friendlyPos="true"/>
  <inductionLoop id="parkingArea_-143666209#2_0_12" lane="-143666209#2_0" pos="1" freq="90000" file="out.xml" friendlyPos="true"/>
  <inductionLoop id="parkingArea_-144346316#4_0_339" lane="-144346316#4_0" pos="23.590000000000003" freq="90000" file="out.xml" friendlyPos="true"/>
  <inductionLoop id="parkingArea_-144346316#5_0_340" lane="-144346316#5_0" pos="29.810000000000002" freq="90000" file="out.xml" friendlyPos="true"/>
  <inductionLoop id="parkingArea_-148846997#1_0_283" lane="-148846997#1_0" pos="14.0" freq="90000" file="out.xml" friendlyPos="true"/>
  <inductionLoop id="parkingArea_-148847001#5_0_26" lane="-148847001#5_0" pos="1" freq="90000" file="out.xml" friendlyPos="true"/>
  <inductionLoop id="parkingArea_-148847001#8_0_30" lane="-148847001#8_0" pos="1" freq="90000" file="out.xml" friendlyPos="true"/>
  <inductionLoop id="parkingArea_-174822357#1_0_95" lane="-174822357#1_0" pos="1" freq="90000" file="out.xml" friendlyPos="true"/>
  <inductionLoop id="parkingArea_-191296172#0_0_201" lane="-191296172#0_0" pos="21.86" freq="90000" file="out.xml" friendlyPos="true"/>
  <inductionLoop id="parkingArea_-204963504_0_187" lane="-204963504_0" pos="22.0" freq="90000" file="out.xml" friendlyPos="true"/>
  <inductionLoop id="parkingArea_-224384018_0_73" lane="-224384018_0" pos="76.73" freq="90000" file="out.xml" friendlyPos="true"/>
  <inductionLoop id="parkingArea_-225432462#1_0_61" lane="-225432462#1_0" pos="4.890000000000001" freq="90000" file="out.xml" friendlyPos="true"/>
  <inductionLoop id="parkingArea_-225518512#1_0_109" lane="-225518512#1_0" pos="28.0" freq="90000" file="out.xml" friendlyPos="true"/>
  <inductionLoop id="parkingArea_-225847526_0_176" lane="-225847526_0" pos="71.5" freq="90000" file="out.xml" friendlyPos="true"/>
  <inductionLoop id="parkingArea_-228186482#1_0_69" lane="-228186482#1_0" pos="1" freq="90000" file="out.xml" friendlyPos="true"/>
  <inductionLoop id="parkingArea_-228201785#0_0_110" lane="-228201785#0_0" pos="1" freq="90000" file="out.xml" friendlyPos="true"/>
  <inductionLoop id="parkingArea_-23924510#0_0_37" lane="-23924510#0_0" pos="11.409999999999997" freq="90000" file="out.xml" friendlyPos="true"/>
  <inductionLoop id="parkingArea_-24310636#2_0_202" lane="-24310636#2_0" pos="6.909999999999997" freq="90000" file="out.xml" friendlyPos="true"/>
  <inductionLoop id="parkingArea_-247966218#2_0_167" lane="-247966218#2_0" pos="79.0" freq="90000" file="out.xml" friendlyPos="true"/>
  <inductionLoop id="parkingArea_-247966218#7_0_160" lane="-247966218#7_0" pos="1" freq="90000" file="out.xml" friendlyPos="true"/>
  <inductionLoop id="parkingArea_-254299113#0_0_11" lane="-254299113#0_0" pos="29.42" freq="90000" file="out.xml" friendlyPos="true"/>
  <inductionLoop id="parkingArea_-254308553_0_144" lane="-254308553_0" pos="40.43000000000001" freq="90000" file="out.xml" friendlyPos="true"/>
  <inductionLoop id="parkingArea_-254396719#1_0_246" lane="-254396719#1_0" pos="2.4099999999999966" freq="90000" file="out.xml" friendlyPos="true"/>
  <inductionLoop id="parkingArea_-254466686#3_0_243" lane="-254466686#3_0" pos="6.25" freq="90000" file="out.xml" friendlyPos="true"/>
  <inductionLoop id="parkingArea_-254466686#4_0_245" lane="-254466686#4_0" pos="2.1199999999999974" freq="90000" file="out.xml" friendlyPos="true"/>
  <inductionLoop id="parkingArea_-254756526#1_0_233" lane="-254756526#1_0" pos="3.4399999999999977" freq="90000" file="out.xml" friendlyPos="true"/>
  <inductionLoop id="parkingArea_-254758120#1_0_313" lane="-254758120#1_0" pos="18.049999999999997" freq="90000" file="out.xml" friendlyPos="true"/>
  <inductionLoop id="parkingArea_-255168048#2_0_9" lane="-255168048#2_0" pos="20.0" freq="90000" file="out.xml" friendlyPos="true"/>
  <inductionLoop id="parkingArea_-255168048#3_0_16" lane="-255168048#3_0" pos="22.0" freq="90000" file="out.xml" friendlyPos="true"/>
  <inductionLoop id="parkingArea_-255168048#4_0_18" lane="-255168048#4_0" pos="11.29" freq="90000" file="out.xml" friendlyPos="true"/>
  <inductionLoop id="parkingArea_-255330036#11_0_91" lane="-255330036#11_0" pos="1" freq="90000" file="out.xml" friendlyPos="true"/>
  <inductionLoop id="parkingArea_-255330036#12_0_93" lane="-255330036#12_0" pos="40.55" freq="90000" file="out.xml" friendlyPos="true"/>
  <inductionLoop id="parkingArea_-255330036#3_0_119" lane="-255330036#3_0" pos="1" freq="90000" file="out.xml" friendlyPos="true"/>
  <inductionLoop id="parkingArea_-263819574#1_0_210" lane="-263819574#1_0" pos="21.0" freq="90000" file="out.xml" friendlyPos="true"/>
  <inductionLoop id="parkingArea_-264874017#4_0_140" lane="-264874017#4_0" pos="1" freq="90000" file="out.xml" friendlyPos="true"/>
  <inductionLoop id="parkingArea_-26938155#4_0_209" lane="-26938155#4_0" pos="8.18" freq="90000" file="out.xml" friendlyPos="true"/>
  <inductionLoop id="parkingArea_-26943758#1_0_185" lane="-26943758#1_0" pos="37.58" freq="90000" file="out.xml" friendlyPos="true"/>
  <inductionLoop id="parkingArea_-27166421#2_0_296" lane="-27166421#2_0" pos="2.8599999999999994" freq="90000" file="out.xml" friendlyPos="true"/>
  <inductionLoop id="parkingArea_-27167281#1_0_163" lane="-27167281#1_0" pos="40.0" freq="90000" file="out.xml" friendlyPos="true"/>
  <inductionLoop id="parkingArea_-27570786#2_0_23" lane="-27570786#2_0" pos="5.329999999999998" freq="90000" file="out.xml" friendlyPos="true"/>
  <inductionLoop id="parkingArea_-27571801_0_50" lane="-27571801_0" pos="4.670000000000002" freq="90000" file="out.xml" friendlyPos="true"/>
  <inductionLoop id="parkingArea_-28231602#5_0_221" lane="-28231602#5_0" pos="1.3299999999999983" freq="90000" file="out.xml" friendlyPos="true"/>
  <inductionLoop id="parkingArea_-283537552#1_0_87" lane="-283537552#1_0" pos="8.850000000000001" freq="90000" file="out.xml" friendlyPos="true"/>
  <inductionLoop id="parkingArea_-283537644#1_0_86" lane="-283537644#1_0" pos="1" freq="90000" file="out.xml" friendlyPos="true"/>
  <inductionLoop id="parkingArea_-28518571#0_0_166" lane="-28518571#0_0" pos="1.0" freq="90000" file="out.xml" friendlyPos="true"/>
  <inductionLoop id="parkingArea_-287958606#1_0_355" lane="-287958606#1_0" pos="19.299999999999997" freq="90000" file="out.xml" friendlyPos="true"/>
  <inductionLoop id="parkingArea_-28805009#4_0_276" lane="-28805009#4_0" pos="1" freq="90000" file="out.xml" friendlyPos="true"/>
  <inductionLoop id="parkingArea_-28841114#2_0_280" lane="-28841114#2_0" pos="0" freq="90000" file="out.xml" friendlyPos="true"/>
  <inductionLoop id="parkingArea_-30029721#1_0_35" lane="-30029721#1_0" pos="1" freq="90000" file="out.xml" friendlyPos="true"/>
  <inductionLoop id="parkingArea_-30029846#0_0_354" lane="-30029846#0_0" pos="14.0" freq="90000" file="out.xml" friendlyPos="true"/>
  <inductionLoop id="parkingArea_-30030283#0_0_279" lane="-30030283#0_0" pos="22.39" freq="90000" file="out.xml" friendlyPos="true"/>
  <inductionLoop id="parkingArea_-30831816#3_0_24" lane="-30831816#3_0" pos="11.969999999999999" freq="90000" file="out.xml" friendlyPos="true"/>
  <inductionLoop id="parkingArea_-30832489_0_334" lane="-30832489_0" pos="25.0" freq="90000" file="out.xml" friendlyPos="true"/>
  <inductionLoop id="parkingArea_-34128712_0_14" lane="-34128712_0" pos="22.0" freq="90000" file="out.xml" friendlyPos="true"/>
  <inductionLoop id="parkingArea_-36331312#0_0_158" lane="-36331312#0_0" pos="46.67" freq="90000" file="out.xml" friendlyPos="true"/>
  <inductionLoop id="parkingArea_-7373736#0_0_147" lane="-7373736#0_0" pos="85.37" freq="90000" file="out.xml" friendlyPos="true"/>
  <inductionLoop id="parkingArea_-7373736#1_0_131" lane="-7373736#1_0" pos="100.66" freq="90000" file="out.xml" friendlyPos="true"/>
  <inductionLoop id="parkingArea_-84823308_0_162" lane="-84823308_0" pos="89.19" freq="90000" file="out.xml" friendlyPos="true"/>
  <inductionLoop id="parkingArea_-87297164#4_0_288" lane="-87297164#4_0" pos="1" freq="90000" file="out.xml" friendlyPos="true"/>
  <inductionLoop id="parkingArea_-88559691#3_0_75" lane="-88559691#3_0" pos="34.44" freq="90000" file="out.xml" friendlyPos="true"/>
  <inductionLoop id="parkingArea_-88559691#6_0_82" lane="-88559691#6_0" pos="36.42" freq="90000" file="out.xml" friendlyPos="true"/>
  <inductionLoop id="parkingArea_-88572874#2_0_188" lane="-88572874#2_0" pos="1" freq="90000" file="out.xml" friendlyPos="true"/>
  <inductionLoop id="parkingArea_-88572877#6_0_76" lane="-88572877#6_0" pos="83.0" freq="90000" file="out.xml" friendlyPos="true"/>
  <inductionLoop id="parkingArea_-88572887#0_0_180" lane="-88572887#0_0" pos="1" freq="90000" file="out.xml" friendlyPos="true"/>
  <inductionLoop id="parkingArea_-88572914#2_0_174" lane="-88572914#2_0" pos="99.28" freq="90000" file="out.xml" friendlyPos="true"/>
  <inductionLoop id="parkingArea_-88572932#2_0_136" lane="-88572932#2_0" pos="80.0" freq="90000" file="out.xml" friendlyPos="true"/>
  <inductionLoop id="parkingArea_-88572941_0_150" lane="-88572941_0" pos="86.0" freq="90000" file="out.xml" friendlyPos="true"/>
  <inductionLoop id="parkingArea_-88572970_0_67" lane="-88572970_0" pos="4.600000000000001" freq="90000" file="out.xml" friendlyPos="true"/>
  <inductionLoop id="parkingArea_-8916563#1_0_222" lane="-8916563#1_0" pos="5.020000000000003" freq="90000" file="out.xml" friendlyPos="true"/>
  <inductionLoop id="parkingArea_-8916563#4_0_219" lane="-8916563#4_0" pos="1" freq="90000" file="out.xml" friendlyPos="true"/>
  <inductionLoop id="parkingArea_-8916765#1_0_33" lane="-8916765#1_0" pos="1" freq="90000" file="out.xml" friendlyPos="true"/>
  <inductionLoop id="parkingArea_-8916922#4_0_52" lane="-8916922#4_0" pos="9.049999999999997" freq="90000" file="out.xml" friendlyPos="true"/>
  <inductionLoop id="parkingArea_-8916930_0_191" lane="-8916930_0" pos="1" freq="90000" file="out.xml" friendlyPos="true"/>
  <inductionLoop id="parkingArea_-8920242#0_0_115" lane="-8920242#0_0" pos="1" freq="90000" file="out.xml" friendlyPos="true"/>
  <inductionLoop id="parkingArea_-8920734_0_356" lane="-8920734_0" pos="1" freq="90000" file="out.xml" friendlyPos="true"/>
  <inductionLoop id="parkingArea_-8922024#5_0_224" lane="-8922024#5_0" pos="2.700000000000003" freq="90000" file="out.xml" friendlyPos="true"/>
  <inductionLoop id="parkingArea_-8922307_0_63" lane="-8922307_0" pos="43.269999999999996" freq="90000" file="out.xml" friendlyPos="true"/>
  <inductionLoop id="parkingArea_-8922640#1_0_252" lane="-8922640#1_0" pos="1" freq="90000" file="out.xml" friendlyPos="true"/>
  <inductionLoop id="parkingArea_-91181760#0_0_294" lane="-91181760#0_0" pos="1" freq="90000" file="out.xml" friendlyPos="true"/>
  <inductionLoop id="parkingArea_-p1#1_0_330" lane="-p1#1_0" pos="1" freq="90000" file="out.xml" friendlyPos="true"/>
  <inductionLoop id="parkingArea_-p2#3_0_126" lane="-p2#3_0" pos="1" freq="90000" file="out.xml" friendlyPos="true"/>
  <inductionLoop id="parkingArea_-p4#0_0_102" lane="-p4#0_0" pos="1" freq="90000" file="out.xml" friendlyPos="true"/>
  <inductionLoop id="parkingArea_100400942#1_0_276" lane="100400942#1_0" pos="1" freq="90000" file="out.xml" friendlyPos="true"/>
  <inductionLoop id="parkingArea_100400947#7_0_311" lane="100400947#7_0" pos="27.14" freq="90000" file="out.xml" friendlyPos="true"/>
  <inductionLoop id="parkingArea_111049100#0_0_64" lane="111049100#0_0" pos="8.549999999999997" freq="90000" file="out.xml" friendlyPos="true"/>
  <inductionLoop id="parkingArea_111050389#11_0_183" lane="111050389#11_0" pos="0" freq="90000" file="out.xml" friendlyPos="true"/>
  <inductionLoop id="parkingArea_111050389#6_0_170" lane="111050389#6_0" pos="38.730000000000004" freq="90000" file="out.xml" friendlyPos="true"/>
  <inductionLoop id="parkingArea_111319423_0_83" lane="111319423_0" pos="87.22" freq="90000" file="out.xml" friendlyPos="true"/>
  <inductionLoop id="parkingArea_111550911#2_0_97" lane="111550911#2_0" pos="1" freq="90000" file="out.xml" friendlyPos="true"/>
  <inductionLoop id="parkingArea_111552058#0_0_101" lane="111552058#0_0" pos="25.0" freq="90000" file="out.xml" friendlyPos="true"/>
  <inductionLoop id="parkingArea_111560679#0_0_111" lane="111560679#0_0" pos="84.75" freq="90000" file="out.xml" friendlyPos="true"/>
  <inductionLoop id="parkingArea_120256350#0_0_51" lane="120256350#0_0" pos="43.55" freq="90000" file="out.xml" friendlyPos="true"/>
  <inductionLoop id="parkingArea_120256350#3_0_52" lane="120256350#3_0" pos="46.989999999999995" freq="90000" file="out.xml" friendlyPos="true"/>
  <inductionLoop id="parkingArea_120256350#8_0_45" lane="120256350#8_0" pos="43.599999999999994" freq="90000" file="out.xml" friendlyPos="true"/>
  <inductionLoop id="parkingArea_120256351_0_49" lane="120256351_0" pos="48.650000000000006" freq="90000" file="out.xml" friendlyPos="true"/>
  <inductionLoop id="parkingArea_123741454#0_0_155" lane="123741454#0_0" pos="177.13" freq="90000" file="out.xml" friendlyPos="true"/>
  <inductionLoop id="parkingArea_123741454#2_0_109" lane="123741454#2_0" pos="726.51" freq="90000" file="out.xml" friendlyPos="true"/>
  <inductionLoop id="parkingArea_123741465_0_169" lane="123741465_0" pos="1" freq="90000" file="out.xml" friendlyPos="true"/>
  <inductionLoop id="parkingArea_133733593#1_0_357" lane="133733593#1_0" pos="30.909999999999997" freq="90000" file="out.xml" friendlyPos="true"/>
  <inductionLoop id="parkingArea_133735130#0_0_120" lane="133735130#0_0" pos="50.97" freq="90000" file="out.xml" friendlyPos="true"/>
  <inductionLoop id="parkingArea_133735130#4_0_118" lane="133735130#4_0" pos="1" freq="90000" file="out.xml" friendlyPos="true"/>
  <inductionLoop id="parkingArea_141688972#1_0_146" lane="141688972#1_0" pos="81.0" freq="90000" file="out.xml" friendlyPos="true"/>
  <inductionLoop id="parkingArea_143617589#2_0_121" lane="143617589#2_0" pos="1" freq="90000" file="out.xml" friendlyPos="true"/>
  <inductionLoop id="parkingArea_143617593_0_143" lane="143617593_0" pos="40.349999999999994" freq="90000" file="out.xml" friendlyPos="true"/>
  <inductionLoop id="parkingArea_143666206_0_5" lane="143666206_0" pos="11.57" freq="90000" file="out.xml" friendlyPos="true"/>
  <inductionLoop id="parkingArea_143666208#0_0_6" lane="143666208#0_0" pos="1" freq="90000" file="out.xml" friendlyPos="true"/>
  <inductionLoop id="parkingArea_144489134#3_0_270" lane="144489134#3_0" pos="18.0" freq="90000" file="out.xml" friendlyPos="true"/>
  <inductionLoop id="parkingArea_144489137#7_0_324" lane="144489137#7_0" pos="17.549999999999997" freq="90000" file="out.xml" friendlyPos="true"/>
  <inductionLoop id="parkingArea_148846995_0_284" lane="148846995_0" pos="1" freq="90000" file="out.xml" friendlyPos="true"/>
  <inductionLoop id="parkingArea_148846996#1_0_282" lane="148846996#1_0" pos="10.659999999999997" freq="90000" file="out.xml" friendlyPos="true"/>
  <inductionLoop id="parkingArea_148846998#0_0_285" lane="148846998#0_0" pos="1" freq="90000" file="out.xml" friendlyPos="true"/>
  <inductionLoop id="parkingArea_157812260#10_0_172" lane="157812260#10_0" pos="52.95" freq="90000" file="out.xml" friendlyPos="true"/>
  <inductionLoop id="parkingArea_157812260#11_0_151" lane="157812260#11_0" pos="50.92" freq="90000" file="out.xml" friendlyPos="true"/>
  <inductionLoop id="parkingArea_157812260#9_0_172" lane="157812260#9_0" pos="1" freq="90000" file="out.xml" friendlyPos="true"/>
  <inductionLoop id="parkingArea_160325575#0_0_47" lane="160325575#0_0" pos="36.989999999999995" freq="90000" file="out.xml" friendlyPos="true"/>
  <inductionLoop id="parkingArea_162931810_0_184" lane="162931810_0" pos="44.900000000000006" freq="90000" file="out.xml" friendlyPos="true"/>
  <inductionLoop id="parkingArea_186400365_0_129" lane="186400365_0" pos="96.0" freq="90000" file="out.xml" friendlyPos="true"/>
  <inductionLoop id="parkingArea_186400366#1_0_190" lane="186400366#1_0" pos="1" freq="90000" file="out.xml" friendlyPos="true"/>
  <inductionLoop id="parkingArea_186400366#9_0_168" lane="186400366#9_0" pos="1" freq="90000" file="out.xml" friendlyPos="true"/>
  <inductionLoop id="parkingArea_196831123#2_0_29" lane="196831123#2_0" pos="19.439999999999998" freq="90000" file="out.xml" friendlyPos="true"/>
  <inductionLoop id="parkingArea_202317711_0_70" lane="202317711_0" pos="1" freq="90000" file="out.xml" friendlyPos="true"/>
  <inductionLoop id="parkingArea_206662304#13_0_290" lane="206662304#13_0" pos="104.30000000000001" freq="90000" file="out.xml" friendlyPos="true"/>
  <inductionLoop id="parkingArea_214545530#0_0_139" lane="214545530#0_0" pos="50.06999999999999" freq="90000" file="out.xml" friendlyPos="true"/>
  <inductionLoop id="parkingArea_214545530#4_0_141" lane="214545530#4_0" pos="1" freq="90000" file="out.xml" friendlyPos="true"/>
  <inductionLoop id="parkingArea_224199018#1_0_236" lane="224199018#1_0" pos="1" freq="90000" file="out.xml" friendlyPos="true"/>
  <inductionLoop id="parkingArea_224199018#2_0_235" lane="224199018#2_0" pos="1" freq="90000" file="out.xml" friendlyPos="true"/>
  <inductionLoop id="parkingArea_224199018#3_0_234" lane="224199018#3_0" pos="1" freq="90000" file="out.xml" friendlyPos="true"/>
  <inductionLoop id="parkingArea_224316514#0_0_261" lane="224316514#0_0" pos="26.689999999999998" freq="90000" file="out.xml" friendlyPos="true"/>
  <inductionLoop id="parkingArea_224316520#0_0_356" lane="224316520#0_0" pos="1" freq="90000" file="out.xml" friendlyPos="true"/>
  <inductionLoop id="parkingArea_224316521#1_0_356" lane="224316521#1_0" pos="1.0" freq="90000" file="out.xml" friendlyPos="true"/>
  <inductionLoop id="parkingArea_224316521#3_0_354" lane="224316521#3_0" pos="3.0600000000000023" freq="90000" file="out.xml" friendlyPos="true"/>
  <inductionLoop id="parkingArea_224316522#0_0_265" lane="224316522#0_0" pos="12.619999999999997" freq="90000" file="out.xml" friendlyPos="true"/>
  <inductionLoop id="parkingArea_224373751_0_54" lane="224373751_0" pos="42.150000000000006" freq="90000" file="out.xml" friendlyPos="true"/>
  <inductionLoop id="parkingArea_224373753_0_53" lane="224373753_0" pos="1" freq="90000" file="out.xml" friendlyPos="true"/>
  <inductionLoop id="parkingArea_224384010#1_0_218" lane="224384010#1_0" pos="0.0" freq="90000" file="out.xml" friendlyPos="true"/>
  <inductionLoop id="parkingArea_224384020#2_0_208" lane="224384020#2_0" pos="22.5" freq="90000" file="out.xml" friendlyPos="true"/>
  <inductionLoop id="parkingArea_224384020#8_0_266" lane="224384020#8_0" pos="99.57" freq="90000" file="out.xml" friendlyPos="true"/>
  <inductionLoop id="parkingArea_224384028#0_0_212" lane="224384028#0_0" pos="2.5900000000000034" freq="90000" file="out.xml" friendlyPos="true"/>
  <inductionLoop id="parkingArea_224384035#1_0_357" lane="224384035#1_0" pos="86.53" freq="90000" file="out.xml" friendlyPos="true"/>
  <inductionLoop id="parkingArea_225432462#0_0_60" lane="225432462#0_0" pos="1" freq="90000" file="out.xml" friendlyPos="true"/>
  <inductionLoop id="parkingArea_225518502#0_0_84" lane="225518502#0_0" pos="11.25" freq="90000" file="out.xml" friendlyPos="true"/>
  <inductionLoop id="parkingArea_225518502#3_0_85" lane="225518502#3_0" pos="16.0" freq="90000" file="out.xml" friendlyPos="true"/>
  <inductionLoop id="parkingArea_225518512#0_0_107" lane="225518512#0_0" pos="38.790000000000006" freq="90000" file="out.xml" friendlyPos="true"/>
  <inductionLoop id="parkingArea_225806031#0_0_350" lane="225806031#0_0" pos="19.0" freq="90000" file="out.xml" friendlyPos="true"/>
  <inductionLoop id="parkingArea_225806056_0_125" lane="225806056_0" pos="53.239999999999995" freq="90000" file="out.xml" friendlyPos="true"/>
  <inductionLoop id="parkingArea_225847514_0_314" lane="225847514_0" pos="18.0" freq="90000" file="out.xml" friendlyPos="true"/>
  <inductionLoop id="parkingArea_225847519#1_0_349" lane="225847519#1_0" pos="1" freq="90000" file="out.xml" friendlyPos="true"/>
  <inductionLoop id="parkingArea_225847519#4_0_348" lane="225847519#4_0" pos="19.0" freq="90000" file="out.xml" friendlyPos="true"/>
  <inductionLoop id="parkingArea_225853133_0_347" lane="225853133_0" pos="16.72" freq="90000" file="out.xml" friendlyPos="true"/>
  <inductionLoop id="parkingArea_228186482#0_0_71" lane="228186482#0_0" pos="2.049999999999997" freq="90000" file="out.xml" friendlyPos="true"/>
  <inductionLoop id="parkingArea_23883761_0_165" lane="23883761_0" pos="52.980000000000004" freq="90000" file="out.xml" friendlyPos="true"/>
  <inductionLoop id="parkingArea_23959829#1_0_198" lane="23959829#1_0" pos="9.25" freq="90000" file="out.xml" friendlyPos="true"/>
  <inductionLoop id="parkingArea_24245395#1_0_211" lane="24245395#1_0" pos="7.170000000000002" freq="90000" file="out.xml" friendlyPos="true"/>
  <inductionLoop id="parkingArea_24335441_0_197" lane="24335441_0" pos="16.590000000000003" freq="90000" file="out.xml" friendlyPos="true"/>
  <inductionLoop id="parkingArea_24335487#1_0_278" lane="24335487#1_0" pos="3.490000000000002" freq="90000" file="out.xml" friendlyPos="true"/>
  <inductionLoop id="parkingArea_24335487#2_0_281" lane="24335487#2_0" pos="3.4299999999999997" freq="90000" file="out.xml" friendlyPos="true"/>
  <inductionLoop id="parkingArea_25372358#0_0_204" lane="25372358#0_0" pos="1" freq="90000" file="out.xml" friendlyPos="true"/>
  <inductionLoop id="parkingArea_254297759#0_0_262" lane="254297759#0_0" pos="2.9200000000000017" freq="90000" file="out.xml" friendlyPos="true"/>
  <inductionLoop id="parkingArea_254297761#0_0_303" lane="254297761#0_0" pos="6.990000000000002" freq="90000" file="out.xml" friendlyPos="true"/>
  <inductionLoop id="parkingArea_254297761#2_0_305" lane="254297761#2_0" pos="4.100000000000001" freq="90000" file="out.xml" friendlyPos="true"/>
  <inductionLoop id="parkingArea_254297763#0_0_297" lane="254297763#0_0" pos="24.58" freq="90000" file="out.xml" friendlyPos="true"/>
  <inductionLoop id="parkingArea_254297763#4_0_337" lane="254297763#4_0" pos="22.549999999999997" freq="90000" file="out.xml" friendlyPos="true"/>
  <inductionLoop id="parkingArea_254297763#6_0_342" lane="254297763#6_0" pos="20.36" freq="90000" file="out.xml" friendlyPos="true"/>
  <inductionLoop id="parkingArea_254299112#1_0_28" lane="254299112#1_0" pos="1" freq="90000" file="out.xml" friendlyPos="true"/>
  <inductionLoop id="parkingArea_254299112#2_0_27" lane="254299112#2_0" pos="16.560000000000002" freq="90000" file="out.xml" friendlyPos="true"/>
  <inductionLoop id="parkingArea_254299113#0_0_10" lane="254299113#0_0" pos="13.130000000000003" freq="90000" file="out.xml" friendlyPos="true"/>
  <inductionLoop id="parkingArea_254299113#3_0_355" lane="254299113#3_0" pos="32.41" freq="90000" file="out.xml" friendlyPos="true"/>
  <inductionLoop id="parkingArea_254299125_0_8" lane="254299125_0" pos="16.0" freq="90000" file="out.xml" friendlyPos="true"/>
  <inductionLoop id="parkingArea_254299142#2_0_116" lane="254299142#2_0" pos="1" freq="90000" file="out.xml" friendlyPos="true"/>
  <inductionLoop id="parkingArea_254299142#3_0_103" lane="254299142#3_0" pos="35.97" freq="90000" file="out.xml" friendlyPos="true"/>
  <inductionLoop id="parkingArea_254306572#0_0_247" lane="254306572#0_0" pos="17.409999999999997" freq="90000" file="out.xml" friendlyPos="true"/>
  <inductionLoop id="parkingArea_254308548#0_0_142" lane="254308548#0_0" pos="64.32" freq="90000" file="out.xml" friendlyPos="true"/>
  <inductionLoop id="parkingArea_254308553_0_157" lane="254308553_0" pos="36.519999999999996" freq="90000" file="out.xml" friendlyPos="true"/>
  <inductionLoop id="parkingArea_254396707#7_0_341" lane="254396707#7_0" pos="24.0" freq="90000" file="out.xml" friendlyPos="true"/>
  <inductionLoop id="parkingArea_254396707#8_0_338" lane="254396707#8_0" pos="23.0" freq="90000" file="out.xml" friendlyPos="true"/>
  <inductionLoop id="parkingArea_254396710#1_0_239" lane="254396710#1_0" pos="1" freq="90000" file="out.xml" friendlyPos="true"/>
  <inductionLoop id="parkingArea_254448248_0_333" lane="254448248_0" pos="1" freq="90000" file="out.xml" friendlyPos="true"/>
  <inductionLoop id="parkingArea_254448250_0_323" lane="254448250_0" pos="3.0799999999999983" freq="90000" file="out.xml" friendlyPos="true"/>
  <inductionLoop id="parkingArea_254448252#0_0_345" lane="254448252#0_0" pos="16.0" freq="90000" file="out.xml" friendlyPos="true"/>
  <inductionLoop id="parkingArea_254448252#1_0_351" lane="254448252#1_0" pos="25.42" freq="90000" file="out.xml" friendlyPos="true"/>
  <inductionLoop id="parkingArea_254466686#0_0_241" lane="254466686#0_0" pos="1.0" freq="90000" file="out.xml" friendlyPos="true"/>
  <inductionLoop id="parkingArea_254756525#15_0_292" lane="254756525#15_0" pos="21.0" freq="90000" file="out.xml" friendlyPos="true"/>
  <inductionLoop id="parkingArea_254756525#25_0_354" lane="254756525#25_0" pos="169.6" freq="90000" file="out.xml" friendlyPos="true"/>
  <inductionLoop id="parkingArea_254756525#3_0_352" lane="254756525#3_0" pos="21.340000000000003" freq="90000" file="out.xml" friendlyPos="true"/>
  <inductionLoop id="parkingArea_254758114#0_0_299" lane="254758114#0_0" pos="25.549999999999997" freq="90000" file="out.xml" friendlyPos="true"/>
  <inductionLoop id="parkingArea_254758115#0_0_310" lane="254758115#0_0" pos="18.0" freq="90000" file="out.xml" friendlyPos="true"/>
  <inductionLoop id="parkingArea_254758120#1_0_312" lane="254758120#1_0" pos="1" freq="90000" file="out.xml" friendlyPos="true"/>
  <inductionLoop id="parkingArea_254758120#3_0_353" lane="254758120#3_0" pos="31.450000000000003" freq="90000" file="out.xml" friendlyPos="true"/>
  <inductionLoop id="parkingArea_254758124#0_0_300" lane="254758124#0_0" pos="8.579999999999998" freq="90000" file="out.xml" friendlyPos="true"/>
  <inductionLoop id="parkingArea_254758124#6_0_325" lane="254758124#6_0" pos="1" freq="90000" file="out.xml" friendlyPos="true"/>
  <inductionLoop id="parkingArea_254758126#4_0_301" lane="254758126#4_0" pos="2.719999999999999" freq="90000" file="out.xml" friendlyPos="true"/>
  <inductionLoop id="parkingArea_254758128#0_0_329" lane="254758128#0_0" pos="2.1000000000000014" freq="90000" file="out.xml" friendlyPos="true"/>
  <inductionLoop id="parkingArea_254758131#2_0_327" lane="254758131#2_0" pos="20.0" freq="90000" file="out.xml" friendlyPos="true"/>
  <inductionLoop id="parkingArea_254758132#0_0_328" lane="254758132#0_0" pos="1" freq="90000" file="out.xml" friendlyPos="true"/>
  <inductionLoop id="parkingArea_254759927#0_0_317" lane="254759927#0_0" pos="7.009999999999998" freq="90000" file="out.xml" friendlyPos="true"/>
  <inductionLoop id="parkingArea_254759928#0_0_332" lane="254759928#0_0" pos="20.299999999999997" freq="90000" file="out.xml" friendlyPos="true"/>
  <inductionLoop id="parkingArea_254759928#2_0_316" lane="254759928#2_0" pos="1" freq="90000" file="out.xml" friendlyPos="true"/>
  <inductionLoop id="parkingArea_254759937#0_0_343" lane="254759937#0_0" pos="1.2899999999999991" freq="90000" file="out.xml" friendlyPos="true"/>
  <inductionLoop id="parkingArea_254971070#0_0_217" lane="254971070#0_0" pos="3.1199999999999974" freq="90000" file="out.xml" friendlyPos="true"/>
  <inductionLoop id="parkingArea_254982299_0_25" lane="254982299_0" pos="25.86" freq="90000" file="out.xml" friendlyPos="true"/>
  <inductionLoop id="parkingArea_255168047#0_0_112" lane="255168047#0_0" pos="4.0" freq="90000" file="out.xml" friendlyPos="true"/>
  <inductionLoop id="parkingArea_255168048#0_0_7" lane="255168048#0_0" pos="23.0" freq="90000" file="out.xml" friendlyPos="true"/>
  <inductionLoop id="parkingArea_255168048#3_0_15" lane="255168048#3_0" pos="20.86" freq="90000" file="out.xml" friendlyPos="true"/>
  <inductionLoop id="parkingArea_255168048#4_0_17" lane="255168048#4_0" pos="1.3299999999999983" freq="90000" file="out.xml" friendlyPos="true"/>
  <inductionLoop id="parkingArea_255330036#10_0_92" lane="255330036#10_0" pos="1" freq="90000" file="out.xml" friendlyPos="true"/>
  <inductionLoop id="parkingArea_255330036#13_0_94" lane="255330036#13_0" pos="66.49" freq="90000" file="out.xml" friendlyPos="true"/>
  <inductionLoop id="parkingArea_255330036#3_0_122" lane="255330036#3_0" pos="10.369999999999997" freq="90000" file="out.xml" friendlyPos="true"/>
  <inductionLoop id="parkingArea_255330036#7_0_96" lane="255330036#7_0" pos="54.14" freq="90000" file="out.xml" friendlyPos="true"/>
  <inductionLoop id="parkingArea_255330069#0_0_132" lane="255330069#0_0" pos="1" freq="90000" file="out.xml" friendlyPos="true"/>
  <inductionLoop id="parkingArea_255330069#1_0_134" lane="255330069#1_0" pos="1" freq="90000" file="out.xml" friendlyPos="true"/>
  <inductionLoop id="parkingArea_25657409#19_0_127" lane="25657409#19_0" pos="97.84" freq="90000" file="out.xml" friendlyPos="true"/>