<?xml version="1.0" encoding="UTF-8"?>
<!-- generated on 2022-05-12 15:04:39.383549 by edgesInDistricts.py v1_12_0+0000-800cb422fa4
  options: -n ..\san_francisco.net.xml -t san_francisco.poly.xml
-->
<tazs xmlns:xsi="http://www.w3.org/2001/XMLSchema-instance" xsi:noNamespaceSchemaLocation="http://sumo.dlr.de/xsd/taz_file.xsd">
    <taz id="0" color="0.8027524662542348,0.09644404247008509,0.36359997409862466" edges="-206662304#10 -206662304#11 -206662304#12 -206662304#13 -206679802#3 -206679802#4 -254758127#1 -254758127#7 -26938417 -35977367#1 -35977367#2 -72981813#3 -87297164#2 -87297164#3 -87297164#4 -87297164#5 -87297164#6 -87297164#7 -87297164#8 206662304#11 206662304#12 206662304#13 206662304#9 206679802#2 206679802#4 26938338#0 26938417 35977367#1 35977367#2 48163472 72981813#3 87297164#2 87297164#3 87297164#4 87297164#5 87297164#6 87297164#7 87297164#8 87376666#0 8921175 gneE6"/>
    <taz id="1" color="0.17507593926320608,0.966451681422618,0.7629578034579106" edges="-254466686#0 -254466686#1 -254466686#2 -254466686#3 -8916375#0 -8916375#1 202317711 224199013#0 224199013#1 224199013#2 224199018#0 224199018#1 224199018#2 224199018#3 224373753 228186482#0 24245406 254396710#0 254396710#1 254466686#0 254466686#1 254466686#2 254466686#3 254756520#2 254756520#3 28319343#0 28319343#1 28319343#2 88597553#0 88597553#1 88597575#0 88597575#1 88597575#3 8916375#0 8916375#1"/>
    <taz id="10" color="0.1401994660295398,0.2946634357197965,0.0054908499206222094" edges="-133755923#0 -247966218#2 -247966218#3 -247966218#4 -247966218#5 -247966218#6 -247966218#7 -247966218#8 -25373173 -25758513 -26943758#1 -27029204 -27167281#1 -36331312#0 -36331312#1 -46622502 -77449304 -84823308 -8915759 -8919512 -8920435 -8920444 -8920452#0 -8920452#1 111050389#10 111050389#11 111050389#9 123741454#0 123741454#1 123741465 133755923#0 154966358 157812260#0 157812260#3 157812260#4 157812260#5 157812260#6 157812260#7 162931808 162931810 186400366#0 186400366#1 186400366#12 186400366#13 186400366#2 186400366#5 186400366#6 186400366#7 186400366#8 186400366#9 22277701 247960234#0 247960234#1 247966218#0 247966218#3 247966218#4 247966218#5 247966218#6 247966218#7 247966218#8 247966219 25373173 254299118#0 254299118#1 254299118#2 254299118#3 254299121#0 254299121#6 254299121#8 254299121#9 254299122 254305033#0 254305033#1 254305033#2 254305033#3 254305033#4 254305033#5 254305050#0 254305050#1 254308553 256787755#0 26779355 26943758#0 27029265#3 27093008#1 27167281#0 27167762 27432609 31129732#1 31129732#2 31129765 36331312#0 36331312#1 46622502 7373728 77449304 84823308 8915115#0 8915115#1 8915117 8915123 8915254 8915263 8915588 8915704#0 8915704#1 8915759 8916215 8918874 8919512 8919947#0 8919947#1 8920435 8920444 8920452#0 8920452#1 8920936#0 8920936#1 gneE20"/>
    <taz id="11" color="0.21546346550054962,0.9716251765720013,0.2771760097539685" edges="-148846998#0 -148846998#1 -148847000#3 -148847005#2 -148874365#10 -148874365#5 -148874366 -263819574#1 -26938155#4 -278995391#3 -278995391#6 -28805009#0 -29059461#1 -47108713 -48211489 -87376675#2 -87376679 -87376697#0 -87376703#1 -8916563#9 -8916564 -8917675#3 -8919609#10 -8919609#7 -91185877#1 148846996#0 148846996#1 148846996#2 148847000#0 148847005#0 148874363#0 148874364#0 148874365#2 148874365#6 148874366 224384028#0 254756518 254971070#0 263819574#0 26938155#3 26938164#0 26938164#2 278995391#0 278995391#4 28805008#0 28805009#0 28805059#0 28805059#2 28805059#3 28808425#0 28808425#2 28808425#3 28808425#4 29059461#0 30030101#0 30030101#1 30030433 47108713 48211487#0 48211487#1 48211487#2 48211489 48211828 48211960 87376669 87376672#0 87376672#1 87376675#0 87376679 87376697#0 87376703#0 8916563#5 8916564 8917675#0 8919609#5 8919609#8 91185877#1 gneE22 gneE23"/>
    <taz id="12" color="0.8816924005237787,0.12176293788845094,0.06087518122776925" edges="-160313263#1 -215524529 123867455 215524529 22277701 30454437 52432936#0 8916792 8918874 gneE21"/>
    <taz id="13" color="0.29411498035036254,0.15816335711796847,0.3905106980656129" edges="-133376120#10 -133376120#11 -133376120#12 -133376120#13 -133376120#14 -133376120#5 -133376120#7 -133376120#9 -148846997#4 -148846997#6 -148846997#8 -206662304#4 -206662304#6 -206662304#8 -206679802#0 -254297762#0 -254758127#11 -254758127#17 -254758127#4 -254758127#5 -254758127#7 -254758127#9 -30029708#0 -30029708#1 -30029708#2 -30029846#0 -30029878#0 -30029878#2 -30029878#3 -30029878#4 -30029878#5 -30029878#6 -30029878#7 -30029878#9 -30030283#6 -331111652#0 -331111652#1 -331111652#2 -48211062#10 -48211062#11 -48211062#9 -48211196#2 -48211196#4 -48211196#6 -5004035 -87297168 -88396418#0 -8916768#14 -8916768#16 -8917692#1 -8917693 -91185870#2 -91185870#3 133376120#10 133376120#11 133376120#12 133376120#13 133376120#14 133376120#5 133376120#6 133376120#8 148846997#4 148846997#5 148846997#7 206662304#4 206662304#5 206662304#7 206679802#1 254297762#0 254758127#10 254758127#12 254758127#13 254758127#14 254758127#16 254758127#17 254758127#4 254758127#5 254758127#6 254758127#8 30029703#0 30029703#2 30029703#3 30029703#4 30029703#6 30029867#0 30029867#1 30029867#2 30029878#0 30029878#1 30029878#3 30029878#4 30029878#5 30029878#6 30029878#7 30029878#8 30030283#6 30086740#1 331111652#0 331111652#1 331111652#2 48211062#10 48211062#11 48211062#9 48211196#1 48211196#3 48211196#5 5004035 87297168 88396418#0 8916768#14 8916768#15 8917692#1 8917693 91185870#2 91185870#3"/>
    <taz id="14" color="0.7743352845686404,0.6566132874147059,0.11962284108454724" edges="-111550910#0 -111550910#1 -111550910#2 -111550911#0 -111550911#1 -111550911#2 -111550911#3 -131700725 -133755923#1 -133755930#0 -133755930#1 -143617589#1 -143617589#6 -160313263#1 -215524529 -224384059#0 -224384059#1 -26943653#1 -27656675 -27659928#0 -27659928#1 -36331135 -37177689#0 -37177689#11 -37177689#5 -37177689#9 -7373728 -7373736#0 111550910#0 111550910#1 111550910#2 123867455 131700725 133755923#0 133755923#1 133755930#0 133755930#1 141688972#0 141688972#1 143617587 162931811#0 162931811#1 22277701 224384059#0 224384059#1 255330047#0 255330048 255330070#0 255330070#3 255351721#0 255351748 26943623 26943653#0 27041554#0 27041554#1 27145438#0 27388400#0 27656675 27659928#0 27659928#1 28518571#1 30454437 36331135 37177689#0 37177689#1 37177689#10 37177689#6 37177789#0 52432936#0 52432938#0 52432938#1 52432939 52433698 7373736#0 8918874 8920391#0 8920394#0 8920394#1 8922234#0"/>
    <taz id="15" color="0.18241579243923856,0.9588098553482836,0.43961861981352535" edges="-24335483#8 -24335483#9 -254758121#0 -254758127#0 -26938417 -26938418#0 -26938418#1 -26938418#2 -26938418#3 -26938418#4 -8917369 224384035#0 224384035#1 24335483#7 24335483#9 254758121#0 254758123#0 26938293#0 26938293#2 26938417 26938418#0 26938418#1 26938418#2 26938418#3 26938418#4 288065246#0 288065246#2 30029560#0 30035682#0 30035682#1 72024282#0 72024282#1 87297166 8917369 8921175 gneE5 gneE6 gneE7"/>
    <taz id="16" color="0.5913032454440164,0.4505978565899812,0.3902532155444932" edges="-133733582#3 -133781749 -133781759#0 -133781759#1 -133781759#2 -225847513 -225847514 -225853133 -225853134 -254758120#0 -254758120#1 -254758120#2 -254758120#3 -263855294#3 -26988030#0 -26988030#1 -26988030#2 -26988030#3 -26988030#4 -27167270#0 -27167270#1 -27167270#2 -30832489 -33789567 -8915763 -8918039#0 -8918039#1 -8918039#2 -8922072#0 -8922072#1 133733582#2 133781749 133781759#0 133781759#1 133781759#2 142972028#1 204963504 204963631 225806031#0 225806031#2 225847513 225847514 225847519#0 225847519#1 225847519#4 225847522#0 225847522#1 225847522#2 225847523 225847526 225853133 225853134 254448248 254448249#0 254448252#0 254448252#1 254758120#0 254758120#1 254758120#2 254758120#3 254758122#7 254759928#0 254759928#1 254759928#2 254759933#0 254759933#2 254759933#4 254759936 263855294#3 26988030#0 26988030#1 26988030#2 26988030#3 26988030#4 26988051 27167270#0 27167270#1 27167270#2 27167302#0 30832489 33789566#0 33789567 33789581#0 8915763 8917756 8917813 8918033#0 8918033#1 8918033#2 8918039#0 8918039#1 8918039#2 8920338 8922072#0 8922072#1 8922164#4 8922164#5 8922164#6 gneE13 gneE14 gneE26"/>
    <taz id="17" color="0.6425503328910375,0.9491240903700131,0.5038468769736714" edges="-111089307#0 -111089307#1 -111089307#2 -111089307#3 -111089307#4 -191296172#0 -191296172#2 -24310636#0 -24310636#1 -24310636#2 -24335439#0 -24335439#1 -24335439#2 -25371463 -27029200#1 -27029200#2 -27029204 -27029246 -8916048 -8917174#1 -8917791 111089307#0 111089307#1 111089307#2 111089307#3 111089307#4 154966358 191296172#0 191296172#1 23959829#0 23959829#1 24310636#0 24310636#1 24310636#2 24335440#0 24335440#1 24335440#2 24335441 25371463 27029200#0 27029200#2 27029204 27029246 31129765 47170567#0 8915254 8915263 8916048 8917174#1 8917500#1 8919947#1 8921849#0 8921849#1 8921849#2 gneE15 gneE16 gneE20 gneE27"/>
    <taz id="18" color="0.44390711761574453,0.17505289560148674,0.9012008358062262" edges="254297763#3 254297763#4 254297763#6 254297763#7 254396707#6 254396707#7 254396707#8 254758115#0 254758122#0 254758122#1 254759937#0 254759938#0 86303763#0 gneE10"/>
    <taz id="19" color="0.7713426654174159,0.2927870171877063,0.7326472553600989" edges="-29059461#1 -91185877#0 -91185877#1 224384020#5 224384020#6 224384020#8 262943780#0 262943780#1 262943780#3 262943780#4 29059461#0 8919205#0 8919205#12 8919215 8920514#0 91181758#3 91181758#4 91181758#5 91182062#2 91182062#3 91182064 91185877#0"/>
    <taz id="2" color="0.20309448207365788,0.2559016182129351,0.36764720626716707" edges="-133376114#1 -133376114#2 -24335485#3 -258613674#0 -258613674#1 -30035647#1 -91182067 100400942#0 100400942#1 224384020#8 24335485#1 254756525#7 258613674#0 258613674#1 262943780#4 30029172#0 30035647#0 8919205#0 91181759#2 91182067 91182068 91182069#1"/>
    <taz id="20" color="0.42052730426772744,0.04595145276805268,0.45057931794973904" edges="-146155388 -204967525 -254297762#2 -254758127#11 -254758127#12 -254758127#13 -254758127#14 -254758127#15 -254758127#16 -254758127#17 -254758127#9 -27054184#1 -27570786#1 -27570786#2 -27570802#1 -30025866#0 -30025866#1 -48211062#12 -87297164#0 -87297164#1 -88396418#0 -8916767#0 -8916767#1 146155388 204967525 254297762#1 254758127#14 254758127#15 27054184#0 27570786#0 27570786#2 27570802#1 30025866#0 30025866#1 37354013 48211062#12 87297164#0 87297164#1 8916767#0 8916767#1"/>
    <taz id="21" color="0.7509887107651173,0.2531466063511053,0.4179225637022371" edges="224316521#3 224316521#4 254756525#5 254756525#6 254756525#7 287958606#3 8920514#1 91181758#0 91181758#1 91181759#0 91182069#1 91182069#7 91182069#8 91182069#9"/>
    <taz id="22" color="0.44796812360636706,0.5984747297209888,0.14829144223599755" edges="-23883760 -23883761 -27167281#1 -28518571#0 -28518571#1 -84823308 -8916792 23883760 23883761 27167281#0 28518571#0 84823308 8916792"/>
    <taz id="23" color="0.9232158464622962,0.9207854555029471,0.8118733923832008" edges="-100400941#0 -100400941#1 -100400942#0 -100400944 -100400946 -286003243#1 -28841115#1 -28841115#2 -91181759#5 -91181760#0 -91181760#2 100400941#0 100400941#1 100400942#0 100400944 100400946 100400947#1 100400947#2 100400947#4 100400947#5 100400947#6 254758114#2 254758126#5 254758126#6 26938124#13 27166406#1 27166444 27166466#0 27166466#2 27397539#0 286003243#0 28841115#0 28841115#2 329596844#2 91181759#2 91181760#0"/>
    <taz id="24" color="0.7486754112686214,0.6248224621686407,0.7264807359251882" edges="-204963504 -204963631 -225847525 -225847526 -27029263 -365816004 -88572874#0 -88572874#1 -88572874#2 -88572887#0 -88572887#1 -88572914#2 -8916930 -8917959 111050389#0 157812260#11 204963435 204963504 225847525 225847526 24335439#0 24335439#1 24335439#2 27029263 27029264#0 27029264#1 27029264#2 47170567#1 88572874#0 88572874#1 88572874#2 88572887#0 88572887#1 88572914#0 88572922#0 88572943#0 88572943#1 8916498 8916930 8916932 8917500#0 8917791 8917959 8919794 8921141#0 89624695#0 89624695#2 89624695#3 91181769#0"/>
    <taz id="25" color="0.7262992106017948,0.37715967155638563,0.134432352872896" edges="-143666206 -143666208#0 -143666209#1 -143666209#2 -143666209#3 -143666209#5 -143666212#1 -148847001#3 -148847001#4 -148847001#5 -148847001#8 -148847001#9 -196831123#0 -196831123#1 -196831123#2 -204968628 -23924510#2 -254299112#0 -254299112#1 -254299112#2 -254299113#0 -254299113#2 -254299113#3 -254299125 -254299128#0 -254982299 -255168048#2 -255168048#3 -255168048#4 -27054184#1 -27400588#2 -27570786#1 -27570798#1 -27570798#4 -27570802#0 -27570802#1 -28805168 -30029721#0 -30029721#1 -30029721#2 -30029721#3 -30029846#0 -30030485#3 -30030485#4 -30030485#5 -30831814#3 -30831816#0 -30831816#1 -30831816#2 -30831816#3 -34128468#1 -34128471#1 -34128712 -34128713#0 -34128718#1 -88142686#0 -88142686#1 -88142686#2 -8916765#0 -8916765#1 -8916768#1 -8916768#10 -8916768#11 -8916768#12 -8916768#13 -8916768#3 -8916768#5 -8916768#6 -8916768#7 -8916768#8 -8916768#9 -8917984 -8918949 -8919519#1 -8919519#2 -8920980#1 -8921255#0 -8921255#1 -8922580#0 -8922580#1 -91185861#0 -91185861#1 143666206 143666208#0 143666209#1 143666209#2 143666209#3 143666209#4 143666212#1 148847001#2 148847001#4 148847001#5 148847001#8 148847001#9 196831107 196831109#0 196831109#1 196831109#2 196831123#0 196831123#1 196831123#2 204968628 23924510#1 254299112#0 254299112#1 254299112#2 254299113#0 254299113#1 254299113#3 254299124#0 254299125 254299128#0 254982299 255168048#0 255168048#3 255168048#4 27041488#0 27041488#2 27054184#0 27400587#0 27400588#0 27570786#0 27570798#0 27570798#4 27570802#0 27570802#1 28518678#0 28518678#1 28518678#2 28805168 30029721#0 30029721#1 30029721#2 30029721#3 30029846#0 30029866#0 30029866#2 30029866#3 30029867#2 30030485#3 30030485#4 30030485#5 30831814#0 30831816#0 30831816#1 30831816#2 30831816#3 34128468#0 34128471#0 34128712 34128713#0 34128718#1 368095536 37126390#4 37126390#6 37126390#7 48163333 48211062#4 48211062#6 48211062#7 48211062#8 88142686#0 88142686#1 88142686#2 88142688#0 88142688#5 88142688#6 88396403 8914958 8916439 8916765#0 8916765#1 8916768#1 8916768#10 8916768#11 8916768#12 8916768#13 8916768#2 8916768#4 8916768#6 8916768#7 8916768#8 8916768#9 8917984 8918318#1 8918318#2 8918949 8919519#0 8919519#2 8919717 8920980#0 8921255#0 8921255#1 8922243#0 8922243#1 8922271#0 8922271#2 8922271#3 8922271#4 8922283#0 8922580#0 8922580#1 91185861#0 91185861#1 91185867#2"/>
    <taz id="26" color="0.9024321398211838,0.9038826976641795,0.04850458911918154" edges="-100400942#0 -100400942#1 -25372932#2 -25372932#3 -25372932#4 -27166421#2 -27166421#4 -27166421#5 -288065247#2 -288065247#3 -288065247#5 -288065247#6 -29059494 -91182068 100400941#0 25372932#0 25372932#1 25372932#3 25372932#4 254756525#15 254756525#16 254756525#17 254756525#19 254756525#20 27166421#1 27166421#3 27166421#5 27398045#5 27398045#6 27398045#7 27398045#8 27398045#9 288065247#2 288065247#3 288065247#4 288065247#6 29059494 29059495#0 29059495#3 30029560#1 30029560#4 30029560#5 8916882#0 8919058 91181760#0 91181760#1 91182066#0"/>
    <taz id="27" color="0.557573328245969,0.35303798764273264,0.9257659560814753" edges="-24588081 -290052331 -30832504 -84654238#2 144489137#7 254297761#2 254297761#4 254758124#3 254758124#6 254758125#0 254758126#0 254758126#1 254758126#2 254758128#0 254758131#0 254758131#2 254758132#0 254758132#2 26938124#4 26938124#5 26938124#6 30832504 377646101#2 84734271#1 84734271#2 84734271#3 84734271#5 86303763#10 86303763#11 86303763#5 86303763#6"/>
    <taz id="28" color="0.9920988559603585,0.543076453642064,0.35475924528665836" edges="-254756526#1 -254971056#1 -254971069#1 -26938155#0 -26938155#2 -8922640#1 224316521#4 224384020#0 224384020#2 224384028#0 24245395#1 25372358#0 25372358#1 254756526#0 254971055 254971056#0 254971069#0 26938155#0 26938155#1 27054195#0 27054196 27054205#0 27054205#1 27054209#0 27054213#0 48211230#2 48211230#4 8916867#0 8919205#16 8919205#17 8919205#18 8919205#21 8922229 8922640#0 91181772#0 91181775#0 91182060 91182062#0 91182062#1 91182062#2"/>
    <taz id="29" color="0.5325035005542547,0.4238908947464465,0.5541690862263393" edges="144489137#0 144489137#1 144489137#2 144489137#3 254448249#2 254448249#4 254758122#3 254758122#4 254758122#6 84734271#6 84734271#7 86303763#0 86303763#1 86303763#2 86303763#4 91181766#0 91181766#1 91181767 gneE12"/>
    <taz id="3" color="0.9073350230165182,0.9151190040229237,0.8952119438970393" edges="-143666209#6 -146155465 -148846999#1 -148846999#2 -148847000#4 -148847000#5 -148847001#1 -148874365#1 -23924508#2 -23924509#0 -23924510#0 -25603425 -27398000 -28808560#2 -28808571#2 -28808571#4 -28808571#6 -28808571#9 -30030485#0 -30030485#1 -30030485#2 -48163188 -48211062#0 -48211062#2 -48211062#3 -48211062#5 -48211062#6 -48211062#7 -48211062#8 -87376697#1 -8916453 -8917421 -8917675#3 -8919609#4 -8922580#0 -91185869 -91185870#0 -91185870#1 143666209#6 146155465 146155885 148846998#0 148846998#1 148846999#0 148846999#2 148847000#4 148847000#5 148847001#0 148874364#1 148874364#3 148874365#0 23924510#0 254971070#1 254971070#2 254971070#3 27398000 278995391#0 278995391#4 28805059#0 28805059#2 28808425#6 28808425#8 28808539#0 28808539#1 28808560#2 28808571#2 28808571#3 28808571#5 28808571#7 30029708#0 30029708#1 30029708#2 30030485#0 30030485#1 30030485#2 48163189 48211062#1 48211062#3 48211062#4 87376697#1 8917421 8919609#1 8922580#0 91185867#0 91185869 91185870#0 91185870#1"/>
    <taz id="30" color="0.8981958967392475,0.8540244316923613,0.8931181631697498" edges="-224384010#1 -28231602#1 -28231602#2 -28231602#5 -28231602#6 -283516316#9 -8916563#0 -8916563#1 -8916563#2 -8916563#4 -8917205#1 -8917205#2 -8919118#0 -8919118#1 -8919608#0 -8919608#2 -8919608#4 -8919608#5 -8919608#6 -8919608#8 -8922024#5 196831109#2 224384010#1 23924510#0 24245395#0 255330035#1 255330035#3 255330035#4 28231602#0 28231602#5 28231602#6 283516316#0 283516316#2 283516316#6 283516316#9 359898620#0 359898620#3 359898620#6 359898622#0 359898623#0 37126390#2 37126390#4 48211230#0 48211381#0 88142685 88142687#0 88142687#1 88142688#6 88142690#0 88142690#1 88142690#2 88142690#3 8916563#0 8916563#1 8916563#2 8916563#3 8917205#2 8918994 8919118#0 8919118#1 8919148 8919608#0 8919608#2 8919608#4 8919608#5 8919608#6 8919608#7 8921164#0 8921164#1 8921164#3 8922024#5 8922271#0"/>
    <taz id="31" color="0.8491801042966928,0.470047815432306,0.7016174115445831" edges="-111547662#2 -111560680 -122498865 -204884121 -207761516 -225432464 -225806041 -225806042#1 -228215681 -365816000 -51392400 -51392402#0 -51392402#1 -85789166#3 -88572895#0 -88572895#2 -88572901#2 -88572932#0 -88572932#1 -88572932#2 -88572941 -p2#3 111547662#0 111560680 122498865 157812260#11 283534317#0 283534317#1 51392400 51392402 85789166#0 88572895#0 88572901#0 88572932#0 88572932#1 88572932#2 88572941 p2#3 p2#4"/>
    <taz id="32" color="0.21795075943272824,0.4321971436939712,0.29199807871905137" edges="-8920734 133733590#0 133733593#0 133733593#1 133755922 144489134#0 204884378#0 204884387#0 224200967 224316513#0 224316514#0 224316522#0 224384019#0 225719777#0 228196396 254306572#0 287958607#3 287958607#4 8920734 91181773#0 91181774#0"/>
    <taz id="33" color="0.174946583963826,0.043289498635195045,0.5717337125371449" edges="-141688972#0 -141688972#1 -141688972#2 -143617587 -143617589#1 -143617589#2 -143617589#6 -143617593 -162931811#0 -162931811#1 -254305050#0 -254305050#1 -254308553 -254758139#0 -254758139#3 -255330036#2 -255330036#3 -255330036#4 -255330036#6 -7373736#1 -8916184 -8916788 -8920154 107674371#0 107674371#1 107674372#0 123741454#1 123741454#2 133735130#0 133735130#2 133735130#4 141688972#2 143617584 143617585#0 143617585#1 143617585#2 143617589#0 143617589#2 143617589#3 143617591 143617593 143666207#0 186400365 202485364 254299142#0 254299142#1 254299142#2 254308548#0 254308548#2 254758139#0 254758139#1 255330036#0 255330036#3 255330036#4 255330036#5 255330069#0 255330069#1 25758528#0 25758528#1 26779600 31129732#0 31129732#1 375744879 47172784 7373736#1 8915062 8915151 8915415 8916184 8916788 8920154"/>
    <taz id="34" color="0.6492685942128313,0.6533591122672557,0.6831917805060621" edges="-111560682 -202317711 -224373753 -228186482#1 -256400251#1 -88572970 111560682 202317711 224373751 224373753 225432462#0 256400244#0 256400251#0 305585433 364480068#2 88572881#0 88572881#3 88572970 88597563#0 99231463#0 99231475"/>
    <taz id="35" color="0.24107398281799075,0.5754505211831655,0.38905352619389344" edges="-111049101 -111560681#2 -24335440#0 -24335440#1 -24335440#2 -264874017#3 -264874017#4 -264874017#5 -43100739 -8917174#0 -8920780#1 -8921776#0 -8921776#1 111049101 111050389#3 111050389#6 111560681#2 133781720 157812260#10 157812260#8 157812260#9 254299121#0 254299121#1 254299121#5 254299121#6 25657409#0 25657409#10 25657409#11 25657409#12 25657409#13 25657409#14 25657409#15 25657409#16 25657409#2 25657409#3 25657409#4 25657409#5 25657409#7 25657409#9 256787755#2 256787755#3 256787755#5 25758513 264874017#0 264874017#3 264874017#4 264874017#5 27029265#0 27029265#1 27029265#2 43100739 43100740 47172109#0 8917174#0 8919872#0 8919872#1 8919948 8920107 8920445 8920780#0 8921776#0 8921776#1 8921855 91181768#0 91181768#1 91181768#2 91181768#3 91181771#18 91181771#19 91181771#20 91181771#22 91181771#23 91181771#24 91181771#26"/>
    <taz id="36" color="0.8202325206741937,0.25730993092121235,0.28713348133438377" edges="-204884387#2 -204884397 -224384019#1 -228196396 -228201785#0 -88559669 -88559691#3 -88572965#0 -88572965#1 -88597577#2 111552058#0 111560679#0 111560679#3 225806056 254299142#11 86334994#0 88559669 88559691#0 88572948#0 88572965#0 88572965#1 88597577#0 8918656#0"/>
    <taz id="37" color="0.07571445932007148,0.8054039789237925,0.7118214860733956" edges="-144346316#2 -144346316#4 -144346316#5 -25372932#0 -25372932#2 -25372932#3 -254758121#2 -254758121#3 100400947#10 100400947#11 100400947#7 100400947#9 144346316#0 144346316#3 144346316#5 254396707#6 254756525#23 254756525#25 254756525#26 254758121#1 254758121#3 254759938#2 254759938#3 26988009#0 26988009#4 27398045#1 27398045#2 27398045#3 27398045#4 gneE8 gneE9"/>
    <taz id="38" color="0.6995108944692535,0.5502649018072409,0.15679106687479927" edges="-263855294#0 -277480564 -35973460#1 -377646101#2 -85789165 204884121 207761516 225432464 225806041 225806042#0 225806043 225847526 228215681 254448247#0 254448250 254758128#1 254759927#0 254759927#1 254759928#3 254759934 254759935 254759942 263855294#0 26938124#0 26938124#1 26938124#2 26938124#3 27400639#0 27400639#1 27400639#2 277480424#0 277480424#2 277480424#4 277480425 277480563#0 277480563#1 277480563#2 277480564 30832507#0 30832507#1 35973460#1 365815995 377646101#2 60949899 85789165 8920184 8920975#0 8920975#1 8920975#2 8922164#0 8922164#1 8922164#2 8922164#3"/>
    <taz id="39" color="0.11550705230292357,0.6842514037194846,0.8314202473107523" edges="-133376113#0 -133376113#1 -133376113#2 -148846997#1 -206629822 -206662304#1 -24335486#1 -24335486#2 -24335487#0 -24335487#1 -24335487#2 -254756527 -28805009#1 -28805009#2 -28805009#3 -28805009#4 -28805009#5 -28805009#6 -28841114#0 -28841114#1 -28841114#2 -30029703#1 -30029703#10 -30029703#2 -30029703#3 -30029703#5 -30029703#8 -30029703#9 -30030283#0 -30030283#3 -48211487#0 -48211487#1 -48211487#2 -87376660#0 -87376660#1 -87376660#2 -87376682 -87376695 133376103 148846995 148846996#0 148846996#1 148846997#0 206629822 206662304#0 24335486#0 24335486#2 24335487#0 24335487#1 24335487#2 254756527 26938247 26938257#0 28805009#1 28805009#2 28805009#3 28805009#4 28805009#5 28805009#6 28841114#0 28841114#1 28841114#2 30029703#10 30029703#2 30029703#3 30029703#6 30029703#9 30030100#0 30030100#2 30030283#0 30030283#1 30030472 48211195#1 87297166 87376660#0 87376660#1 87376660#2 87376682 87376695 8918983#1 8921173 8921175 91181758#6 91185877#1"/>
    <taz id="4" color="0.42001883262848383,0.7149228631089086,0.6236314093709734" edges="-27397715 -28231602#1 -28231602#2 -283516316#1 -283516316#3 -283516316#6 -28843496 -47108420#2 -47108420#3 -47108420#4 -8918994 -8919179#0 -8919179#1 -8921065 -8922024#2 -p3#1 160325575#0 224199014#0 224200968 24335489#0 254756517 254756520#0 254756521#0 254756521#3 254756521#5 254756521#6 262943779 262943781 26769717#0 26769717#1 26769842#0 27146036#0 27146036#1 27146036#2 27397715 27398048#0 27398048#2 27398048#4 28231602#0 28231602#2 28319343#0 28319343#2 28319343#3 283512618#0 283512618#3 283512618#5 283516316#6 28843496 29328570 30758839#0 30758839#1 32930554#0 32931798#0 32931798#1 32931798#2 32931798#3 359898157#0 359898521#0 359898621#0 47108420#0 47108420#3 47108420#4 88463826#0 88463826#2 88463826#3 88463831#0 88597575#6 8918994 8919179#0 8919179#1 8919205#24 8922024#0 8922026 8922560#0 8922560#1 8922560#3 8922560#4 p3#0"/>
    <taz id="40" color="0.7616188235637663,0.05286656650892296,0.8848198167477794" edges="-174822357#0 -174822357#1 -175129396#1 -215819163 -255330036#10 -255330036#11 -255330036#12 -255330036#13 -255330036#7 -255330036#8 -255330036#9 -255330037 -255330038#1 -255330038#2 -27397927 -27398032#2 -27398032#3 -283537552#0 -283537552#1 -283537644#1 -283537644#2 -35675861#0 -35675861#1 -35675862 -43100046 -43100086 -47172835 -88466055#0 -88466055#1 -88559661#0 -88559661#2 -88559680#2 -88559680#4 -88559680#5 -88559702#0 -88559702#1 -88559702#2 -8916551 -8919053 -8919615#0 -8919615#1 -8919616#0 -8919616#1 -8921907 -99231466 110361656 111550910#1 111550910#2 111550911#0 111550911#1 111550911#2 111550911#3 120813417 123741452 123741454#2 123741454#3 133735130#0 133735130#2 174822357#0 174822357#1 175129396#0 175135945 175354957#0 175354957#1 179235223 202317709 202485364 254299117#0 254299117#1 255330036#10 255330036#11 255330036#12 255330036#13 255330036#7 255330036#8 255330036#9 255330037 255330038#0 255330038#2 255330056#0 255330057#0 26779600 26944075#0 26944075#1 27397927 27398032#0 27398032#3 27772070 28842183 31129372 43100046 43100047#0 43100047#2 43100047#3 47172834#0 47172834#2 47172835 50690291#0 50690291#1 88559650 88559661#0 88559661#1 88559680#0 88559680#3 88559680#5 8915351 8916551 8916553#0 8916553#1 8917778 8918793#0 8918793#3 8919053 8919615#0 8919615#1 8919616#0 8919616#1 8921907 8921938 8922234#0 8922234#2 90077241 99231466"/>
    <taz id="41" color="0.9665138696734565,0.8489509705307521,0.25472618604364605" edges="-287958606#3 -91181759#1 224316521#0 224316521#1 254466695#2 254466695#3 287958606#3 29023741#0 29023741#1 329596844#1"/>
    <taz id="42" color="0.4033636437316802,0.4343900309205365,0.5492761543136572" edges="-121785555 -214545530#2 -214545530#3 -214545530#6 -214545530#7 -264874017#2 -264874017#3 -264874017#5 -8917441#0 -8917441#1 -8918381#0 -8918381#1 -8920242#0 -8920242#1 -8920242#2 -8920934 -8922858#0 -8922858#1 121785555 143617584 143617585#0 214545530#0 214545530#3 214545530#4 214545530#7 254299142#3 254299142#7 254299142#9 255168047#0 255168047#3 25657409#17 25657409#18 25657409#19 283534317#2 283534317#5 283534317#6 283534317#8 8917441#0 8917441#1 8918381#0 8918381#1 8920242#0 8920242#1 8920242#2 8920281#0 8920281#1 8920281#2 8920934 8922291#0 8922291#1 8922858#0 8922858#1 91181771#15 91181771#16 91181771#6"/>
    <taz id="43" color="0.29627993843465994,0.17613417400801779,0.6598682309856002" edges="-224316527 -254396709#1 -254396719#1 -254466686#4 -254971068 -287958606#1 224199018#4 224316527 254396709#0 254396719#0 254466686#4 254466695#0 254756525#0 254756525#3 254971067#0 254971068 27054213#2 27054213#4 27054213#6 287958606#0 287958607#0 287958607#2 88597553#2 8916867#2"/>
    <taz id="44" color="0.7009216400987337,0.8685250061153694,0.4988765587874884" edges="-120256349 -160325571#1 -224200968 -27571801 -88463831#1 120256349 120256350#0 120256351 160325575#0 254971064#0 27397934#0 27571801 30831808#0 88463827#0 8916922#0 8916922#1 8916922#3 8922263#1"/>
    <taz id="5" color="0.8120281773383138,0.07548664279104778,0.22822959167896595" edges="-84654238#3 254297761#0 254297763#0 254297763#1 254297763#2 254758114#0 254758114#1 254758114#2 254758115#2 254758124#0 254758124#1 254758126#3 254758126#4 26938124#12 26938124#9 27166466#3 28841121#4"/>
    <taz id="6" color="0.2600914759565668,0.44276697520928754,0.8611120953034713" edges="-204884378#1 -224384018 -225719777#1 -88559691#3 -88572877#6 -88597577#2 88572877#0 88572905 8919020#0"/>
    <taz id="7" color="0.8790660799273595,0.28922364419545166,0.739585210811408" edges="-111586254#3 -144489136 -184956229#1 -228201785#0 -228201785#1 -228202845#2 -24588081 -28841122#0 -28841122#1 -84654238#3 -84654238#5 -p1#0 -p1#1 -p7#1 111586254#0 111586257 144489134#2 144489134#3 144489136 163784093 184956229#0 204884397 224316520#0 224316520#1 225806043 228196396 228201785#0 228201785#1 228202845#2 24588081 254297759#0 254297764#0 286003244#1 286003244#6 286003244#9 28841117#0 28841120#0 28841121#0 28841122#0 28841122#1 28841123#0 290052331 290052332#1 290052332#4 290080809#0 290080809#4 29023785#0 377646102#0 377646102#2 84654238#0 84654238#3 84654238#4 86303763#14 86303763#17 88597544#0 88597544#2 gneE24 gneE25 p1#0 p1#1 p7#0"/>
    <taz id="8" color="0.7128508393610388,0.8056631533607401,0.4560991223853006" edges="-202485361#1 -225432462#1 -225518512#1 -242896157#0 -242896157#3 -254971064#1 -27397692 -27397937 -27398032#2 -364480069 -88463830 -88559691#6 -8916922#0 -8916922#2 -8916922#4 -8917425 -8922307 -99231475 -99231486 -p4#0 110361656 111049100#0 111319423 120256350#3 120256350#8 179235241 179235243#1 225432457 225518502#0 225518502#2 225518502#3 225518512#0 242896157#1 24335490#0 254299142#3 255168046#0 255168046#2 255330056#0 27397691 27397692 27397919 27397937 27398032#0 283537380#0 283537380#1 283537380#2 283537552#0 283537552#1 283537644#0 283537644#2 329607867 35675861#0 35675861#1 364480068#0 364480068#1 364480069 364480601#0 364480601#1 47172745 88463829#0 88463830 88466052#0 88466052#1 88466055#0 88466055#1 88559691#4 88559702#0 88559702#1 88559702#2 8915752 8916922#0 8917425 8918460#0 8919328#0 8919328#1 8919338 8919403#0 8922307 91181770#0 91181771#0 91181771#3 91181771#4 91181771#5 99231460 99231468#0 99231482 p4#0"/>