<routes>
  <trip id="2404" color="1,1,0" from="84823308" to="-33789567" depart="0">
  
</trip>
<trip id="3302" color="1,1,0" from="31129765" to="8922291#0" depart="3">
    
  </trip>
  <trip id="3770" color="1,1,0" from="142972028#1" to="283537380#0" depart="6">
  
</trip>
<trip id="4055" color="1,1,0" from="-133781749" to="-27397692" depart="9">
  
</trip>
<trip id="4181" color="1,1,0" from="142972028#1" to="8916922#1" depart="12">
  
</trip>
<trip id="4802" color="1,1,0" from="-23883760" to="283537380#1" depart="15">
    
  </trip>
  <trip id="4888" color="1,1,0" from="225806031#0" to="8922307" depart="18">
    
  </trip>
  <trip id="5221" color="1,1,0" from="224384035#0" to="8921849#2" depart="21">
    
  </trip>
  <trip id="5355" color="1,1,0" from="31129765" to="30831808#0" depart="24">
    
  </trip>
  <trip id="5398" color="1,1,0" from="23959829#0" to="143617589#0" depart="27">
    
  </trip>
  <trip id="6422" color="1,1,0" from="90077241" to="91181771#0" depart="30">
  
</trip>
<trip id="6466" color="1,1,0" from="225806031#0" to="99231482" depart="33">
  
</trip>
<trip id="6644" color="1,1,0" from="-23883761" to="364480601#0" depart="36">
    
  </trip>
  <trip id="6953" color="1,1,0" from="90077241" to="91181771#5" depart="39">
  
</trip>
<trip id="7473" color="1,1,0" from="8916767#0" to="8915752" depart="42">
    
  </trip>
  <trip id="7871" color="1,1,0" from="-24310636#2" to="254299142#3" depart="45">
    
  </trip>
  <trip id="7877" color="1,1,0" from="90077241" to="-225518512#1" depart="48">
    
  </trip>
  <trip id="7879" color="1,1,0" from="224384035#0" to="225518512#0" depart="51">
  
</trip>
<trip id="7891" color="1,1,0" from="8916792" to="8916922#0" depart="54">
    
  </trip>
  <trip id="8247" color="1,1,0" from="254396707#6" to="47172745" depart="57">
  
</trip>
<trip id="8275" color="1,1,0" from="123867455" to="91181771#5" depart="60">
  
</trip>
<trip id="8619" color="1,1,0" from="27167762" to="35675861#1" depart="63">
    
  </trip>
  <trip id="9132" color="1,1,0" from="27398045#1" to="8916922#1" depart="66">
  
</trip>
<trip id="9774" color="1,1,0" from="133733582#2" to="8919338" depart="69">
    
  </trip>
  <trip id="9905" color="1,1,0" from="123867455" to="p4#0" depart="72">
  
</trip>
<trip id="10444" color="1,1,0" from="-23883761" to="99231468#0" depart="75">
  
</trip>
<trip id="10775" color="1,1,0" from="-24310636#2" to="27054213#6" depart="78">
  
</trip>
<trip id="11119" color="1,1,0" from="-8916048" to="179235223" depart="81">
    
  </trip>
  <trip id="11317" color="1,1,0" from="90077241" to="-8919616#1" depart="84">
    
  </trip>
  <trip id="11337" color="1,1,0" from="-35977367#2" to="224199014#0" depart="87">
  
</trip>
<trip id="11567" color="1,1,0" from="-91181760#0" to="206662304#13" depart="90" />
  <trip id="11582" color="1,1,0" from="123867455" to="111089307#4" depart="93">
    
  </trip>
  <trip id="11994" color="1,1,0" from="84823308" to="32931798#1" depart="96">
  
</trip>
<trip id="12781" color="1,1,0" from="144489137#0" to="224316522#0" depart="99">
    
  </trip>
  <trip id="13861" color="1,1,0" from="-133755930#1" to="133733593#1" depart="102">
  
</trip>
<trip id="14823" color="1,1,0" from="191296172#0" to="47108420#4" depart="105">
    
  </trip>
  <trip id="15519" color="1,1,0" from="123867455" to="255330036#11" depart="108">
  
</trip>
<trip id="15834" color="1,1,0" from="27398045#1" to="-225518512#1" depart="111">
    
  </trip>
  <trip id="16672" color="1,1,0" from="142972028#1" to="-p3#1" depart="114">
    
  </trip>
  <trip id="17642" color="1,1,0" from="31129765" to="-88559661#0" depart="117">
    
  </trip>
  <trip id="18086" color="1,1,0" from="-206679802#4" to="-144489136" depart="120">
  
</trip>
<trip id="18185" color="1,1,0" from="144489137#0" to="88597553#2" depart="123">
    
  </trip>
  <trip id="18266" color="1,1,0" from="31129765" to="-99231475" depart="126">
  
</trip>
<trip id="18330" color="1,1,0" from="123867455" to="26988030#2" depart="129">
    
  </trip>
  <trip id="805" color="1,1,0" from="8915254" to="-254971068" depart="132">
  
</trip>
<trip id="1657" color="1,1,0" from="31129765" to="-43100739" depart="135">
    
  </trip>
  <trip id="3000" color="1,1,0" from="27388400#0" to="206662304#13" depart="138">
  
</trip>
<trip id="3693" color="1,1,0" from="90077241" to="225432462#0" depart="141">
  
</trip>
<trip id="4185" color="1,1,0" from="86303763#0" to="225518512#0" depart="144">
    
  </trip>
  <trip id="4523" color="1,1,0" from="31129765" to="31129732#0" depart="147">
    
  </trip>
  <trip id="4545" color="1,1,0" from="254396707#6" to="27054213#4" depart="150">
    
  </trip>
  <trip id="4845" color="1,1,0" from="8915254" to="8916922#3" depart="153">
  
</trip>
<trip id="5012" color="1,1,0" from="30029172#0" to="154966358" depart="156">
  
</trip>
<trip id="5045" color="1,1,0" from="-27029200#2" to="-242896157#0" depart="159">
    
  </trip>
  <trip id="5662" color="1,1,0" from="-27570802#1" to="-8917425" depart="162">
  
</trip>
<trip id="5706" color="1,1,0" from="-204967525" to="8915752" depart="165">
  
</trip>
<trip id="6083" color="1,1,0" from="31129765" to="35675861#1" depart="168">
    
  </trip>
  <trip id="6508" color="1,1,0" from="111089307#0" to="8916922#0" depart="171">
    
  </trip>
  <trip id="7712" color="1,1,0" from="90077241" to="204884121" depart="174">
    
  </trip>
  <trip id="8374" color="1,1,0" from="-27029200#2" to="88466052#0" depart="177">
    
  </trip>
  <trip id="10512" color="1,1,0" from="8916792" to="247966218#3" depart="180">
    
  </trip>
  <trip id="11949" color="1,1,0" from="8916767#0" to="-37177689#5" depart="183">
  
</trip>
<trip id="12698" color="1,1,0" from="90077241" to="254306572#0" depart="186">
  
</trip>
<trip id="13227" color="1,1,0" from="-204967525" to="224199018#4" depart="189">
  
</trip>
<trip id="14079" color="1,1,0" from="28319343#2" to="50690291#1" depart="192" />
  <trip id="15224" color="1,1,0" from="-27029204" to="111319423" depart="195">
    
  </trip>
  <trip id="15712" color="1,1,0" from="-206662304#13" to="99231463#0" depart="198">
    
  </trip>
  <trip id="15981" color="1,1,0" from="-24310636#2" to="35675861#0" depart="201">
    
  </trip>
  <trip id="16753" color="1,1,0" from="27167762" to="35675861#0" depart="204">
    
  </trip>
  <trip id="17329" color="1,1,0" from="-206679802#4" to="35675861#1" depart="207">
  
</trip>
<trip id="1720" color="1,1,0" from="255330036#13" to="24310636#2" depart="210" />
  <trip id="2228" color="1,1,0" from="52432938#0" to="50690291#1" depart="213">
  
</trip>
<trip id="2380" color="1,1,0" from="224316521#3" to="91181767" depart="216" />
  <trip id="2507" color="1,1,0" from="-204967525" to="254758122#4" depart="219">
    
  </trip>
  <trip id="2648" color="1,1,0" from="144489137#0" to="-8918039#1" depart="222">
    
  </trip>
  <trip id="3455" color="1,1,0" from="-254297762#2" to="-47108420#2" depart="225">
  
</trip>
<trip id="3522" color="1,1,0" from="225806031#0" to="-25371463" depart="228">
    
  </trip>
  <trip id="4216" color="1,1,0" from="90077241" to="91181771#0" depart="231">
    
  </trip>
  <trip id="4563" color="1,1,0" from="-27570786#2" to="99231463#0" depart="234">
    
  </trip>
  <trip id="4794" color="1,1,0" from="-24310636#2" to="-35675861#0" depart="237">
    
  </trip>
  <trip id="4955" color="1,1,0" from="-23883760" to="8916922#0" depart="240">
  
</trip>
<trip id="6319" color="1,1,0" from="-133781749" to="88463830" depart="243">
    
  </trip>
  <trip id="6870" color="1,1,0" from="-133781749" to="8922858#0" depart="246">
    
  </trip>
  <trip id="7625" color="1,1,0" from="31129765" to="91181771#0" depart="249">
    
  </trip>
  <trip id="8771" color="1,1,0" from="90077241" to="24335490#0" depart="252">
  
</trip>
<trip id="10789" color="1,1,0" from="90077241" to="242896157#1" depart="255">
  
</trip>
<trip id="11572" color="1,1,0" from="-35977367#2" to="26938124#4" depart="258">
    
  </trip>
  <trip id="12299" color="1,1,0" from="254396707#6" to="99231460" depart="261">
    
  </trip>
  <trip id="12843" color="1,1,0" from="31129765" to="-8922307" depart="264">
    
  </trip>
  <trip id="14413" color="1,1,0" from="31129765" to="254306572#0" depart="267">
    
  </trip>
  <trip id="14712" color="1,1,0" from="-254758120#3" to="8919328#0" depart="270">
  
</trip>
<trip id="15301" color="1,1,0" from="144489137#0" to="225518502#3" depart="273">
    
  </trip>
  <trip id="17297" color="1,1,0" from="-27167281#1" to="8922560#3" depart="276">
  
</trip>
<trip id="17455" color="1,1,0" from="-254758121#2" to="204967525" depart="279">
  
</trip>
<trip id="18646" color="1,1,0" from="254758124#0" to="50690291#1" depart="282" />
  <trip id="2609" color="1,1,0" from="123867455" to="228186482#0" depart="285">
    
  </trip>
  <trip id="3457" color="1,1,0" from="90077241" to="-204884121" depart="288">
    
  </trip>
  <trip id="3621" color="1,1,0" from="142972028#1" to="-202485361#1" depart="291">
    
  </trip>
  <trip id="4061" color="1,1,0" from="-254297762#2" to="283537552#0" depart="294">
    
  </trip>
  <trip id="4712" color="1,1,0" from="-27029204" to="-88559691#6" depart="297">
  
</trip>
<trip id="6399" color="1,1,0" from="90077241" to="8916922#3" depart="300">
  
</trip>
<trip id="7765" color="1,1,0" from="224384035#0" to="120256350#3" depart="303">
    
  </trip>
  <trip id="7801" color="1,1,0" from="225806031#0" to="88466052#1" depart="306">
  
</trip>
<trip id="8074" color="1,1,0" from="224384035#0" to="-364480069" depart="309">
  
</trip>
<trip id="8309" color="1,1,0" from="8915254" to="-283537552#0" depart="312">
  
</trip>
<trip id="8757" color="1,1,0" from="8915254" to="91181771#3" depart="315">
    
  </trip>
  <trip id="10625" color="1,1,0" from="-206679802#4" to="255330036#9" depart="318">
    
  </trip>
  <trip id="11753" color="1,1,0" from="-206662304#13" to="111319423" depart="321">
  
</trip>
<trip id="12043" color="1,1,0" from="8916792" to="91181774#0" depart="324">
    
  </trip>
  <trip id="12593" color="1,1,0" from="191296172#0" to="99231482" depart="327">
    
  </trip>
  <trip id="13953" color="1,1,0" from="-24310636#2" to="-8917425" depart="330">
    
  </trip>
  <trip id="16444" color="1,1,0" from="-133755930#1" to="133733593#1" depart="333">
    
  </trip>
  <trip id="18357" color="1,1,0" from="31129765" to="287958606#0" depart="336">
    
  </trip>
  <trip id="294" color="1,1,0" from="225806031#0" to="143617589#0" depart="339">
    
  </trip>
  <trip id="2087" color="1,1,0" from="-254758120#3" to="228202845#2" depart="342">
  
</trip>
<trip id="2398" color="1,1,0" from="90077241" to="254756520#0" depart="345">
    
  </trip>
  <trip id="2904" color="1,1,0" from="48211196#5" to="-8916792" depart="348" />
  <trip id="4672" color="1,1,0" from="27167762" to="329607867" depart="351">
    
  </trip>
  <trip id="7533" color="1,1,0" from="8915254" to="278995391#0" depart="354">
  
</trip>
<trip id="9630" color="1,1,0" from="8916767#0" to="-254466686#4" depart="357">
    
  </trip>
  <trip id="10190" color="1,1,0" from="86303763#0" to="-283537552#0" depart="360">
    
  </trip>
  <trip id="12381" color="1,1,0" from="142972028#1" to="254971067#0" depart="363">
  
</trip>
<trip id="12753" color="1,1,0" from="111089307#0" to="224373753" depart="366">
    
  </trip>
  <trip id="14439" color="1,1,0" from="31129765" to="-99231475" depart="369">
    
  </trip>
  <trip id="15047" color="1,1,0" from="254396707#6" to="283537552#0" depart="372">
  
</trip>
<trip id="15397" color="1,1,0" from="-24310636#2" to="8916867#2" depart="375">
    
  </trip>
  <trip id="16973" color="1,1,0" from="-133755930#1" to="8922560#0" depart="378">
  
</trip>
<trip id="17313" color="1,1,0" from="-204967525" to="27054213#4" depart="381">
    
  </trip>
  <trip id="4025" color="1,1,0" from="-133781749" to="88463829#0" depart="384">
    
  </trip>
  <trip id="5603" color="1,1,0" from="90077241" to="255168046#0" depart="387">
    
  </trip>
  <trip id="6286" color="1,1,0" from="23959829#0" to="-35675861#1" depart="390">
    
  </trip>
  <trip id="14856" color="1,1,0" from="31129765" to="204884387#0" depart="393">
  
</trip>
<trip id="17010" color="1,1,0" from="142972028#1" to="8922858#1" depart="396">
    
  </trip>
  <trip id="6480" color="1,1,0" from="-27167281#1" to="111319423" depart="399">
    
  </trip>
  <trip id="8086" color="1,1,0" from="8916767#0" to="-8916922#2" depart="402">
    
  </trip>
  <trip id="12035" color="1,1,0" from="90077241" to="364480601#0" depart="405">
    
  </trip>
  <trip id="14205" color="1,1,0" from="31129765" to="254306572#0" depart="408">
    
  </trip>
  <trip id="5361" color="1,1,0" from="-204967525" to="290080809#4" depart="411">
    
  </trip>
  <trip id="5854" color="1,1,0" from="-27570786#2" to="120256350#3" depart="414">
  
</trip>
<trip id="10547" color="1,1,0" from="90077241" to="-254466686#4" depart="417">
    
  </trip>
  <trip id="11956" color="1,1,0" from="-35977367#2" to="286003244#9" depart="420">
    
  </trip>
  <trip id="16953" color="1,1,0" from="-206662304#13" to="-27398032#2" depart="423">
    
  </trip>
  <trip id="5400" color="1,1,0" from="-27029204" to="8917425" depart="426">
    
  </trip>
  <trip id="6377" color="1,1,0" from="86303763#0" to="27397692" depart="429">
    
  </trip>
  <trip id="6687" color="1,1,0" from="142972028#1" to="120256350#3" depart="432">
    
  </trip>
  <trip id="6703" color="1,1,0" from="-35977367#2" to="8919328#0" depart="435">
    
  </trip>
  <trip id="8412" color="1,1,0" from="90077241" to="91181771#3" depart="438">
  
</trip>
<trip id="8660" color="1,1,0" from="23959829#0" to="99231475" depart="441">
  
</trip>
<trip id="9165" color="1,1,0" from="31129765" to="225518502#2" depart="444">
    
  </trip>
  <trip id="9890" color="1,1,0" from="133733582#2" to="-255330036#7" depart="447">
  
</trip>
<trip id="11056" color="1,1,0" from="144489137#0" to="-8916551" depart="450">
    
  </trip>
  <trip id="11214" color="1,1,0" from="-35977367#2" to="-88559680#4" depart="453">
    
  </trip>
  <trip id="11494" color="1,1,0" from="23959829#0" to="255330036#8" depart="456">
  
</trip>
<trip id="12823" color="1,1,0" from="142972028#1" to="287958607#3" depart="459">
  
</trip>
<trip id="13362" color="1,1,0" from="-27570786#2" to="47108420#3" depart="462">
    
  </trip>
  <trip id="13450" color="1,1,0" from="-133755930#1" to="-99231475" depart="465">
  
</trip>
<trip id="14729" color="1,1,0" from="-35977367#2" to="47108420#0" depart="468">
  
</trip>
<trip id="14825" color="1,1,0" from="-160313263#1" to="-47108420#2" depart="471">
    
  </trip>
  <trip id="15334" color="1,1,0" from="31129765" to="47108420#0" depart="474">
  
</trip>
<trip id="1266" color="1,1,0" from="28805009#5" to="27570802#1" depart="477">
  
</trip>
<trip id="2206" color="1,1,0" from="90077241" to="-255330036#10" depart="480">
  
</trip>
<trip id="3673" color="1,1,0" from="-27029204" to="120256350#8" depart="483">
    
  </trip>
  <trip id="3982" color="1,1,0" from="90077241" to="-225518512#1" depart="486">
  
</trip>
<trip id="4771" color="1,1,0" from="-160313263#1" to="-88559691#6" depart="489">
  
</trip>
<trip id="6460" color="1,1,0" from="8916767#0" to="8916922#0" depart="492">
  
</trip>
<trip id="7029" color="1,1,0" from="-206679802#4" to="91181771#5" depart="495">
  
</trip>
<trip id="7039" color="1,1,0" from="90077241" to="225432457" depart="498">
  
</trip>
<trip id="7258" color="1,1,0" from="-8916048" to="225432457" depart="501">
    
  </trip>
  <trip id="7560" color="1,1,0" from="191296172#0" to="247960234#1" depart="504">
  
</trip>
<trip id="8635" color="1,1,0" from="-27029200#2" to="-8916922#2" depart="507">
    
  </trip>
  <trip id="8769" color="1,1,0" from="-204967525" to="225518512#0" depart="510">
  
</trip>
<trip id="9215" color="1,1,0" from="123867455" to="225518512#0" depart="513">
  
</trip>
<trip id="9528" color="1,1,0" from="-35977367#1" to="225847519#4" depart="516">
  
</trip>
<trip id="9756" color="1,1,0" from="90077241" to="224316522#0" depart="519">
  
</trip>
<trip id="10474" color="1,1,0" from="90077241" to="-p3#1" depart="522">
  
</trip>
<trip id="16725" color="1,1,0" from="8916792" to="91181771#0" depart="525">
    
  </trip>
  <trip id="16789" color="1,1,0" from="-133781749" to="224200967" depart="528">
  
</trip>
<trip id="2175" color="1,1,0" from="-30029708#0" to="50690291#1" depart="531" />
  <trip id="2419" color="1,1,0" from="gneE21" to="206662304#13" depart="534">
  
</trip>
<trip id="2932" color="1,1,0" from="-254758120#3" to="283534317#6" depart="537">
    
  </trip>
  <trip id="3720" color="1,1,0" from="225806031#0" to="225518502#3" depart="540">
  
</trip>
<trip id="6494" color="1,1,0" from="111089307#0" to="88466052#1" depart="543">
    
  </trip>
  <trip id="8765" color="1,1,0" from="8916767#0" to="283537552#0" depart="546">
    
  </trip>
  <trip id="12059" color="1,1,0" from="-23883761" to="-242896157#0" depart="549">
    
  </trip>
  <trip id="12184" color="1,1,0" from="224384035#0" to="133733590#0" depart="552">
    
  </trip>
  <trip id="13274" color="1,1,0" from="90077241" to="287958607#3" depart="555">
  
</trip>
<trip id="14583" color="1,1,0" from="27167762" to="254971068" depart="558">
  
</trip>
<trip id="463" color="1,1,0" from="-24335483#9" to="27054205#1" depart="561">
  
</trip>
<trip id="3832" color="1,1,0" from="111089307#0" to="214545530#0" depart="564">
    
  </trip>
  <trip id="4075" color="1,1,0" from="8915254" to="-283537552#0" depart="567">
    
  </trip>
  <trip id="5741" color="1,1,0" from="-206662304#13" to="99231468#0" depart="570">
    
  </trip>
  <trip id="5977" color="1,1,0" from="8915254" to="27397692" depart="573">
  
</trip>
<trip id="7045" color="1,1,0" from="90077241" to="8916922#3" depart="576">
  
</trip>
<trip id="7738" color="1,1,0" from="90077241" to="-8922307" depart="579">
  
</trip>
<trip id="9136" color="1,1,0" from="-254297762#2" to="8922307" depart="582">
  
</trip>
<trip id="11139" color="1,1,0" from="224384035#0" to="-254396709#1" depart="585">
    
  </trip>
  <trip id="16922" color="1,1,0" from="90077241" to="224316522#0" depart="588">
  
</trip>
<trip id="7869" color="1,1,0" from="224384035#0" to="225432462#0" depart="591">
    
  </trip>
  <trip id="13105" color="1,1,0" from="142972028#1" to="224316522#0" depart="594">
    
  </trip>
  <trip id="13938" color="1,1,0" from="-254297762#2" to="133733593#1" depart="597">
  
</trip>
<trip id="1775" color="1,1,0" from="-288065247#1" to="-133733582#3" depart="600">
  
</trip>
<trip id="3791" color="1,1,0" from="-263819574#1" to="8916048" depart="603">
  
</trip>
<trip id="3873" color="1,1,0" from="90077241" to="99231475" depart="606">
    
  </trip>
  <trip id="4480" color="1,1,0" from="254396707#6" to="-202485361#1" depart="609">
  
</trip>
<trip id="4511" color="1,1,0" from="23959829#0" to="364480069" depart="612">
  
</trip>
<trip id="5001" color="1,1,0" from="-24310636#2" to="8919328#1" depart="615">
  
</trip>
<trip id="6134" color="1,1,0" from="90077241" to="120256350#3" depart="618">
    
  </trip>
  <trip id="7312" color="1,1,0" from="90077241" to="88559691#4" depart="621">
    
  </trip>
  <trip id="7722" color="1,1,0" from="-144346316#5" to="8919403#0" depart="624">
    
  </trip>
  <trip id="7889" color="1,1,0" from="8916792" to="110361656" depart="627">
    
  </trip>
  <trip id="8753" color="1,1,0" from="-160313263#1" to="-8916922#0" depart="630">
    
  </trip>
  <trip id="8763" color="1,1,0" from="90077241" to="225432462#0" depart="633">
  
</trip>
<trip id="11277" color="1,1,0" from="-144346316#5" to="47172834#2" depart="636">
    
  </trip>
  <trip id="14589" color="1,1,0" from="8916792" to="p3#0" depart="639">
    
  </trip>
  <trip id="14661" color="1,1,0" from="90077241" to="-8920734" depart="642">
    
  </trip>
  <trip id="16434" color="1,1,0" from="86303763#0" to="133733593#0" depart="645">
  
</trip>
<trip id="16766" color="1,1,0" from="224384035#0" to="8916551" depart="648">
    
  </trip>
  <trip id="17353" color="1,1,0" from="84823308" to="8919616#1" depart="651">
    
  </trip>
  <trip id="1877" color="1,1,0" from="225806031#0" to="32931798#2" depart="654">
  
</trip>
<trip id="4405" color="1,1,0" from="-24335483#9" to="283537552#0" depart="657">
    
  </trip>
  <trip id="4843" color="1,1,0" from="-204967525" to="225518502#3" depart="660">
    
  </trip>
  <trip id="5723" color="1,1,0" from="-204967525" to="225518502#2" depart="663">
    
  </trip>
  <trip id="5973" color="1,1,0" from="8916792" to="27397919" depart="666">
    
  </trip>
  <trip id="7243" color="1,1,0" from="-254297762#2" to="8918460#0" depart="669">
    
  </trip>
  <trip id="8235" color="1,1,0" from="142972028#1" to="8917425" depart="672">
    
  </trip>
  <trip id="9746" color="1,1,0" from="191296172#0" to="26769717#1" depart="675">
    
  </trip>
  <trip id="13718" color="1,1,0" from="31129765" to="228196396" depart="678">
  
</trip>
<trip id="17166" color="1,1,0" from="-23883760" to="8919328#1" depart="681">
  
</trip>
<trip id="3366" color="1,1,0" from="144489137#3" to="254756525#26" depart="684">
  
</trip>
<trip id="1781" color="1,1,0" from="148847001#0" to="8918874" depart="687">
  
</trip>
<trip id="4879" color="1,1,0" from="133733582#2" to="-225518512#1" depart="690">
  
</trip>
<trip id="10141" color="1,1,0" from="-254297762#2" to="-283537552#0" depart="693">
  
</trip>
<trip id="10968" color="1,1,0" from="111089307#0" to="-283537552#0" depart="696">
  
</trip>
<trip id="13012" color="1,1,0" from="-254297762#2" to="8919616#0" depart="699">
  
</trip>
<trip id="14924" color="1,1,0" from="-254297762#2" to="133733593#1" depart="702">
  
</trip>
<trip id="11918" color="1,1,0" from="-133755923#1" to="35977367#2" depart="705">
  
</trip>
<trip id="5140" color="1,1,0" from="8916767#0" to="-8922307" depart="708">
  
</trip>
<trip id="17866" color="1,1,0" from="-88572874#1" to="225847519#4" depart="711" />
  <trip id="3764" color="1,1,0" from="8919058" to="100400947#11" depart="714" />
  <trip id="33" color="1,1,0" from="254396707#6" to="8919020#0" depart="717">
  
</trip>
<trip id="1988" color="1,1,0" from="-254758120#3" to="-24335440#0" depart="720">
  
</trip>
<trip id="2889" color="1,1,0" from="288065247#6" to="254756525#26" depart="723">
  
</trip>
<trip id="3710" color="1,1,0" from="225806031#0" to="35675861#1" depart="726">
    
  </trip>
  <trip id="3806" color="1,1,0" from="-48211196#4" to="133755930#1" depart="729">
  
</trip>
<trip id="3990" color="1,1,0" from="225806031#0" to="364480069" depart="732">
    
  </trip>
  <trip id="4073" color="1,1,0" from="-24335483#9" to="-225432462#1" depart="735">
  
</trip>
<trip id="4612" color="1,1,0" from="31129765" to="111049100#0" depart="738">
    
  </trip>
  <trip id="4853" color="1,1,0" from="90077241" to="-88463830" depart="741">
    
  </trip>
  <trip id="5771" color="1,1,0" from="90077241" to="120256350#8" depart="744">
  
</trip>
<trip id="6897" color="1,1,0" from="-204967525" to="-225432462#1" depart="747">
    
  </trip>
  <trip id="7683" color="1,1,0" from="-24335483#9" to="283537380#2" depart="750">
    
  </trip>
  <trip id="8112" color="1,1,0" from="90077241" to="-8916922#4" depart="753">
  
</trip>
<trip id="11460" color="1,1,0" from="-27029204" to="133733590#0" depart="756">
    
  </trip>
  <trip id="12111" color="1,1,0" from="-27167281#1" to="224200967" depart="759">
  
</trip>
<trip id="12263" color="1,1,0" from="-23883761" to="88597553#2" depart="762">
    
  </trip>
  <trip id="12625" color="1,1,0" from="90077241" to="-35675862" depart="765">
  
</trip>
<trip id="13050" color="1,1,0" from="23959829#0" to="27146036#1" depart="768">
  
</trip>
<trip id="13563" color="1,1,0" from="-23883761" to="255330036#12" depart="771">
    
  </trip>
  <trip id="14136" color="1,1,0" from="111089307#0" to="224316513#0" depart="774">
    
  </trip>
  <trip id="14179" color="1,1,0" from="-35977367#2" to="-175129396#1" depart="777">
    
  </trip>
  <trip id="14453" color="1,1,0" from="90077241" to="8922307" depart="780">
    
  </trip>
  <trip id="15234" color="1,1,0" from="-27167281#1" to="-287958606#1" depart="783">
  
</trip>
<trip id="17980" color="1,1,0" from="-27167281#1" to="-224316527" depart="786">
    
  </trip>
  <trip id="819" color="1,1,0" from="34128713#0" to="154966358" depart="789">
  
</trip>
<trip id="2019" color="1,1,0" from="288065247#6" to="24335483#9" depart="792" />
  <trip id="4260" color="1,1,0" from="191296172#0" to="-283537552#0" depart="795">
    
  </trip>
  <trip id="4823" color="1,1,0" from="224384035#0" to="-88559691#6" depart="798">
  
</trip>
<trip id="4855" color="1,1,0" from="27167762" to="-99231475" depart="801">
    
  </trip>
  <trip id="6939" color="1,1,0" from="-48211062#12" to="-27397937" depart="804">
    
  </trip>
  <trip id="7047" color="1,1,0" from="-133755930#1" to="-88463830" depart="807">
  
</trip>
<trip id="8186" color="1,1,0" from="-204967525" to="99231460" depart="810">
    
  </trip>
  <trip id="8295" color="1,1,0" from="-254758120#3" to="-99231475" depart="813">
    
  </trip>
  <trip id="8418" color="1,1,0" from="31129765" to="8922307" depart="816">
    
  </trip>
  <trip id="11064" color="1,1,0" from="31129765" to="-88559702#0" depart="819">
  
</trip>
<trip id="13008" color="1,1,0" from="90077241" to="133733590#0" depart="822">
  
</trip>
<trip id="13195" color="1,1,0" from="-27029200#2" to="8922164#4" depart="825">
  
</trip>
<trip id="14299" color="1,1,0" from="-27167281#1" to="254758126#3" depart="828">
  
</trip>
<trip id="14698" color="1,1,0" from="90077241" to="364480068#1" depart="831">
    
  </trip>
  <trip id="15260" color="1,1,0" from="86303763#0" to="-202485361#1" depart="834">
    
  </trip>
  <trip id="18169" color="1,1,0" from="144489137#0" to="-88463830" depart="837">
  
</trip>
<trip id="3132" color="1,1,0" from="-133755930#1" to="30029703#4" depart="840">
    
  </trip>
  <trip id="3869" color="1,1,0" from="-27570802#1" to="-242896157#3" depart="843">
    
  </trip>
  <trip id="3984" color="1,1,0" from="90077241" to="-254971064#1" depart="846">
  
</trip>
<trip id="7035" color="1,1,0" from="-133755930#1" to="329607867" depart="849">
  
</trip>
<trip id="7809" color="1,1,0" from="31129765" to="-8922307" depart="852">
    
  </trip>
  <trip id="8843" color="1,1,0" from="90077241" to="364480068#1" depart="855">
  
</trip>
<trip id="13801" color="1,1,0" from="-24335483#9" to="254756525#3" depart="858">
    
  </trip>
  <trip id="2266" color="1,1,0" from="90077241" to="-88572877#6" depart="861">
    
  </trip>
  <trip id="2937" color="1,1,0" from="90077241" to="99231466" depart="864">
    
  </trip>
  <trip id="2204" color="1,1,0" from="-27029200#2" to="254756520#2" depart="867">
    
  </trip>
  <trip id="4692" color="1,1,0" from="254396707#6" to="27397691" depart="870">
    
  </trip>
  <trip id="10284" color="1,1,0" from="31129765" to="-99231486" depart="873">
    
  </trip>
  <trip id="12172" color="1,1,0" from="90077241" to="30758839#1" depart="876">
    
  </trip>
  <trip id="4752" color="1,1,0" from="-27570802#1" to="8919403#0" depart="879">
  
</trip>
<trip id="7645" color="1,1,0" from="84823308" to="91181771#0" depart="882">
  
</trip>
<trip id="7875" color="1,1,0" from="8916792" to="179235241" depart="885">
  
</trip>
<trip id="8014" color="1,1,0" from="31129765" to="242896157#1" depart="888">
  
</trip>
<trip id="11326" color="1,1,0" from="133733582#2" to="287958606#0" depart="891">
  
</trip>
<trip id="2405" color="1,1,0" from="-33789567" to="-191296172#0" depart="894">
  
</trip>
<trip id="4056" color="1,1,0" from="-27397692" to="35977367#2" depart="897">
  
</trip>
<trip id="4182" color="1,1,0" from="-242896157#0" to="204967525" depart="900" />
  <trip id="5222" color="1,1,0" from="-191296172#2" to="154966358" depart="903">
  
</trip>
<trip id="5399" color="1,1,0" from="-254758139#0" to="50690291#1" depart="906">
  
</trip>
<trip id="8084" color="1,1,0" from="-204967525" to="-8916922#0" depart="909">
    
  </trip>
  <trip id="8620" color="1,1,0" from="120256350#3" to="-133733582#3" depart="912" />
  <trip id="11583" color="1,1,0" from="31129765" to="254758126#3" depart="915">
    
  </trip>
  <trip id="17467" color="1,1,0" from="204884387#0" to="254297763#7" depart="918">
  
</trip>
<trip id="1658" color="1,1,0" from="47172109#0" to="30454437" depart="921" />
  <trip id="4930" color="1,1,0" from="144489137#0" to="-35675861#1" depart="924">
    
  </trip>
  <trip id="5702" color="1,1,0" from="8915254" to="204884378#0" depart="927">
    
  </trip>
  <trip id="7025" color="1,1,0" from="31129765" to="8916922#3" depart="930">
  
</trip>
<trip id="12699" color="1,1,0" from="204884387#0" to="50690291#1" depart="933">
  
</trip>
<trip id="17330" color="1,1,0" from="8922307" to="254756525#26" depart="936">
  
</trip>
<trip id="2229" color="1,1,0" from="-111089307#4" to="52432936#0" depart="939" />
  <trip id="11573" color="1,1,0" from="144489137#7" to="154966358" depart="942" />
  <trip id="12300" color="1,1,0" from="-35675861#0" to="48211062#12" depart="945">
  
</trip>
<trip id="13031" color="1,1,0" from="-24310636#2" to="-287958606#1" depart="948">
    
  </trip>
  <trip id="14713" color="1,1,0" from="225518502#2" to="27029200#2" depart="951" />
  <trip id="2610" color="1,1,0" from="-88572970" to="50690291#1" depart="954">
  
</trip>
<trip id="2399" color="1,1,0" from="8919179#1" to="254297762#1" depart="957" />
  <trip id="8031" color="1,1,0" from="191296172#0" to="-p4#0" depart="960">
  
</trip>
<trip id="9631" color="1,1,0" from="254396709#0" to="91181767" depart="963" />
  <trip id="15048" color="1,1,0" from="99231460" to="-8916792" depart="966">
  
</trip>
<trip id="15398" color="1,1,0" from="254466686#4" to="204967525" depart="969" />
  <trip id="16940" color="1,1,0" from="224384035#0" to="8918381#1" depart="972">
  
</trip>
<trip id="274" color="1,1,0" from="31129765" to="-215524529" depart="975">
  
</trip>
<trip id="5604" color="1,1,0" from="88466052#1" to="50690291#1" depart="978" />