<routes>

  <trip id="2404" color="1,1,0" from="84823308" to="-33789567" depart="18000" end="19800">
  
</trip>
<trip id="3302" color="1,1,0" from="31129765" to="8922291#0" depart="18000" end="21900">
    
  </trip>
  <trip id="3770" color="1,1,0" from="142972028#1" to="283537380#0" depart="18000" end="43380">
  
</trip>
<trip id="4055" color="1,1,0" from="-133781749" to="-27397692" depart="18000" end="19800">
  
</trip>
<trip id="4181" color="1,1,0" from="142972028#1" to="8916922#1" depart="18000" end="19800">
  
</trip>
<trip id="4802" color="1,1,0" from="-23883760" to="283537380#1" depart="18000" end="48000">
    
  </trip>
  <trip id="4888" color="1,1,0" from="225806031#0" to="8922307" depart="18000" end="53820">
    
  </trip>
  <trip id="5221" color="1,1,0" from="224384035#0" to="8921849#2" depart="18000" end="19800">
    
  </trip>
  <trip id="5355" color="1,1,0" from="31129765" to="30831808#0" depart="18000" end="57720">
    
  </trip>
  <trip id="5398" color="1,1,0" from="23959829#0" to="143617589#0" depart="18000" end="19800">
    
  </trip>
  <trip id="6422" color="1,1,0" from="90077241" to="91181771#0" depart="18000" end="43980">
  
</trip>
<trip id="6466" color="1,1,0" from="225806031#0" to="99231482" depart="18000" end="36060">
  
</trip>
<trip id="6644" color="1,1,0" from="-23883761" to="364480601#0" depart="18000" end="33360">
    
  </trip>
  <trip id="6953" color="1,1,0" from="90077241" to="91181771#5" depart="18000" end="75480">
  
</trip>
<trip id="7473" color="1,1,0" from="8916767#0" to="8915752" depart="18000" end="43680">
    
  </trip>
  <trip id="7871" color="1,1,0" from="-24310636#2" to="254299142#3" depart="18000" end="29520">
    
  </trip>
  <trip id="7877" color="1,1,0" from="90077241" to="-225518512#1" depart="18000" end="62700">
    
  </trip>
  <trip id="7879" color="1,1,0" from="224384035#0" to="225518512#0" depart="18000" end="51900">
  
</trip>
<trip id="7891" color="1,1,0" from="8916792" to="8916922#0" depart="18000" end="65520">
    
  </trip>
  <trip id="8247" color="1,1,0" from="254396707#6" to="47172745" depart="18000" end="43380">
  
</trip>
<trip id="8275" color="1,1,0" from="123867455" to="91181771#5" depart="18000" end="21900">
  
</trip>
<trip id="8619" color="1,1,0" from="27167762" to="35675861#1" depart="18000" end="19800">
    
  </trip>
  <trip id="9132" color="1,1,0" from="27398045#1" to="8916922#1" depart="18000" end="47100">
  
</trip>
<trip id="9774" color="1,1,0" from="133733582#2" to="8919338" depart="18000" end="32640">
    
  </trip>
  <trip id="9905" color="1,1,0" from="123867455" to="p4#0" depart="18000" end="39780">
  
</trip>
<trip id="10444" color="1,1,0" from="-23883761" to="99231468#0" depart="18000" end="36900">
  
</trip>
<trip id="10775" color="1,1,0" from="-24310636#2" to="27054213#6" depart="18000" end="40140">
  
</trip>
<trip id="11119" color="1,1,0" from="-8916048" to="179235223" depart="18000" end="40500">
    
  </trip>
  <trip id="11317" color="1,1,0" from="90077241" to="-8919616#1" depart="18000" end="40620">
    
  </trip>
  <trip id="11337" color="1,1,0" from="-35977367#2" to="224199014#0" depart="18000" end="43620">
  
</trip>
<trip id="11567" color="1,1,0" from="-91181760#0" to="206662304#13" depart="18000" end="32460" />
  <trip id="11582" color="1,1,0" from="123867455" to="111089307#4" depart="18000" end="19800">
    
  </trip>
  <trip id="11994" color="1,1,0" from="84823308" to="32931798#1" depart="18000" end="36180">
  
</trip>
<trip id="12781" color="1,1,0" from="144489137#0" to="224316522#0" depart="18000" end="39060">
    
  </trip>
  <trip id="13861" color="1,1,0" from="-133755930#1" to="133733593#1" depart="18000" end="50520">
  
</trip>
<trip id="14823" color="1,1,0" from="191296172#0" to="47108420#4" depart="18000" end="57720">
    
  </trip>
  <trip id="15519" color="1,1,0" from="123867455" to="255330036#11" depart="18000" end="55680">
  
</trip>
<trip id="15834" color="1,1,0" from="27398045#1" to="-225518512#1" depart="18000" end="57000">
    
  </trip>
  <trip id="16672" color="1,1,0" from="142972028#1" to="-p3#1" depart="18000" end="85740">
    
  </trip>
  <trip id="17642" color="1,1,0" from="31129765" to="-88559661#0" depart="18000" end="36240">
    
  </trip>
  <trip id="18086" color="1,1,0" from="-206679802#4" to="-144489136" depart="18000" end="21660">
  
</trip>
<trip id="18185" color="1,1,0" from="144489137#0" to="88597553#2" depart="18000" end="39720">
    
  </trip>
  <trip id="18266" color="1,1,0" from="31129765" to="-99231475" depart="18000" end="22200">
  
</trip>
<trip id="18330" color="1,1,0" from="123867455" to="26988030#2" depart="18000" end="79320">
    
  </trip>
  <trip id="805" color="1,1,0" from="8915254" to="-254971068" depart="18060" end="21720">
  
</trip>
<trip id="1657" color="1,1,0" from="31129765" to="-43100739" depart="18060" end="19860">
    
  </trip>
  <trip id="3000" color="1,1,0" from="27388400#0" to="206662304#13" depart="18060" end="19860">
  
</trip>
<trip id="3693" color="1,1,0" from="90077241" to="225432462#0" depart="18060" end="57720">
  
</trip>
<trip id="4185" color="1,1,0" from="86303763#0" to="225518512#0" depart="18060" end="50940">
    
  </trip>
  <trip id="4523" color="1,1,0" from="31129765" to="31129732#0" depart="18060" end="22620">
    
  </trip>
  <trip id="4545" color="1,1,0" from="254396707#6" to="27054213#4" depart="18060" end="21720">
    
  </trip>
  <trip id="4845" color="1,1,0" from="8915254" to="8916922#3" depart="18060" end="51180">
  
</trip>
<trip id="5012" color="1,1,0" from="30029172#0" to="154966358" depart="18060" end="57840">
  
</trip>
<trip id="5045" color="1,1,0" from="-27029200#2" to="-242896157#0" depart="18060" end="46980">
    
  </trip>
  <trip id="5662" color="1,1,0" from="-27570802#1" to="-8917425" depart="18060" end="47220">
  
</trip>
<trip id="5706" color="1,1,0" from="-204967525" to="8915752" depart="18060" end="36900">
  
</trip>
<trip id="6083" color="1,1,0" from="31129765" to="35675861#1" depart="18060" end="54540">
    
  </trip>
  <trip id="6508" color="1,1,0" from="111089307#0" to="8916922#0" depart="18060" end="71400">
    
  </trip>
  <trip id="7712" color="1,1,0" from="90077241" to="204884121" depart="18060" end="22500">
    
  </trip>
  <trip id="8374" color="1,1,0" from="-27029200#2" to="88466052#0" depart="18060" end="32640">
    
  </trip>
  <trip id="10512" color="1,1,0" from="8916792" to="247966218#3" depart="18060" end="21720">
    
  </trip>
  <trip id="11949" color="1,1,0" from="8916767#0" to="-37177689#5" depart="18060" end="36240">
  
</trip>
<trip id="12698" color="1,1,0" from="90077241" to="254306572#0" depart="18060" end="19860">
  
</trip>
<trip id="13227" color="1,1,0" from="-204967525" to="224199018#4" depart="18060" end="36120">
  
</trip>
<trip id="14079" color="1,1,0" from="28319343#2" to="50690291#1" depart="18060" end="21840" />
  <trip id="15224" color="1,1,0" from="-27029204" to="111319423" depart="18060" end="22080">
    
  </trip>
  <trip id="15712" color="1,1,0" from="-206662304#13" to="99231463#0" depart="18060" end="21780">
    
  </trip>
  <trip id="15981" color="1,1,0" from="-24310636#2" to="35675861#0" depart="18060" end="44160">
    
  </trip>
  <trip id="16753" color="1,1,0" from="27167762" to="35675861#0" depart="18060" end="39000">
    
  </trip>
  <trip id="17329" color="1,1,0" from="-206679802#4" to="35675861#1" depart="18060" end="19860">
  
</trip>
<trip id="1720" color="1,1,0" from="255330036#13" to="24310636#2" depart="18120" end="25440" />
  <trip id="2228" color="1,1,0" from="52432938#0" to="50690291#1" depart="18120" end="19920">
  
</trip>
<trip id="2380" color="1,1,0" from="224316521#3" to="91181767" depart="18120" end="58320" />
  <trip id="2507" color="1,1,0" from="-204967525" to="254758122#4" depart="18120" end="24000">
    
  </trip>
  <trip id="2648" color="1,1,0" from="144489137#0" to="-8918039#1" depart="18120" end="21840">
    
  </trip>
  <trip id="3455" color="1,1,0" from="-254297762#2" to="-47108420#2" depart="18120" end="21780">
  
</trip>
<trip id="3522" color="1,1,0" from="225806031#0" to="-25371463" depart="18120" end="21840">
    
  </trip>
  <trip id="4216" color="1,1,0" from="90077241" to="91181771#0" depart="18120" end="36480">
    
  </trip>
  <trip id="4563" color="1,1,0" from="-27570786#2" to="99231463#0" depart="18120" end="23700">
    
  </trip>
  <trip id="4794" color="1,1,0" from="-24310636#2" to="-35675861#0" depart="18120" end="36180">
    
  </trip>
  <trip id="4955" color="1,1,0" from="-23883760" to="8916922#0" depart="18120" end="43380">
  
</trip>
<trip id="6319" color="1,1,0" from="-133781749" to="88463830" depart="18120" end="48480">
    
  </trip>
  <trip id="6870" color="1,1,0" from="-133781749" to="8922858#0" depart="18120" end="22080">
    
  </trip>
  <trip id="7625" color="1,1,0" from="31129765" to="91181771#0" depart="18120" end="64260">
    
  </trip>
  <trip id="8771" color="1,1,0" from="90077241" to="24335490#0" depart="18120" end="21960">
  
</trip>
<trip id="10789" color="1,1,0" from="90077241" to="242896157#1" depart="18120" end="71160">
  
</trip>
<trip id="11572" color="1,1,0" from="-35977367#2" to="26938124#4" depart="18120" end="19920">
    
  </trip>
  <trip id="12299" color="1,1,0" from="254396707#6" to="99231460" depart="18120" end="19920">
    
  </trip>
  <trip id="12843" color="1,1,0" from="31129765" to="-8922307" depart="18120" end="47340">
    
  </trip>
  <trip id="14413" color="1,1,0" from="31129765" to="254306572#0" depart="18120" end="36660">
    
  </trip>
  <trip id="14712" color="1,1,0" from="-254758120#3" to="8919328#0" depart="18120" end="19920">
  
</trip>
<trip id="15301" color="1,1,0" from="144489137#0" to="225518502#3" depart="18120" end="62340">
    
  </trip>
  <trip id="17297" color="1,1,0" from="-27167281#1" to="8922560#3" depart="18120" end="64980">
  
</trip>
<trip id="17455" color="1,1,0" from="-254758121#2" to="204967525" depart="18120" end="51120">
  
</trip>
<trip id="18646" color="1,1,0" from="254758124#0" to="50690291#1" depart="18120" end="21840" />
  <trip id="2609" color="1,1,0" from="123867455" to="228186482#0" depart="18180" end="19980">
    
  </trip>
  <trip id="3457" color="1,1,0" from="90077241" to="-204884121" depart="18180" end="22500">
    
  </trip>
  <trip id="3621" color="1,1,0" from="142972028#1" to="-202485361#1" depart="18180" end="67920">
    
  </trip>
  <trip id="4061" color="1,1,0" from="-254297762#2" to="283537552#0" depart="18180" end="57060">
    
  </trip>
  <trip id="4712" color="1,1,0" from="-27029204" to="-88559691#6" depart="18180" end="38880">
  
</trip>
<trip id="6399" color="1,1,0" from="90077241" to="8916922#3" depart="18180" end="67980">
  
</trip>
<trip id="7765" color="1,1,0" from="224384035#0" to="120256350#3" depart="18180" end="54780">
    
  </trip>
  <trip id="7801" color="1,1,0" from="225806031#0" to="88466052#1" depart="18180" end="36300">
  
</trip>
<trip id="8074" color="1,1,0" from="224384035#0" to="-364480069" depart="18180" end="50820">
  
</trip>
<trip id="8309" color="1,1,0" from="8915254" to="-283537552#0" depart="18180" end="54900">
  
</trip>
<trip id="8757" color="1,1,0" from="8915254" to="91181771#3" depart="18180" end="53100">
    
  </trip>
  <trip id="10625" color="1,1,0" from="-206679802#4" to="255330036#9" depart="18180" end="44580">
    
  </trip>
  <trip id="11753" color="1,1,0" from="-206662304#13" to="111319423" depart="18180" end="43920">
  
</trip>
<trip id="12043" color="1,1,0" from="8916792" to="91181774#0" depart="18180" end="46260">
    
  </trip>
  <trip id="12593" color="1,1,0" from="191296172#0" to="99231482" depart="18180" end="67860">
    
  </trip>
  <trip id="13953" color="1,1,0" from="-24310636#2" to="-8917425" depart="18180" end="36360">
    
  </trip>
  <trip id="16444" color="1,1,0" from="-133755930#1" to="133733593#1" depart="18180" end="69480">
    
  </trip>
  <trip id="18357" color="1,1,0" from="31129765" to="287958606#0" depart="18180" end="47040">
    
  </trip>
  <trip id="294" color="1,1,0" from="225806031#0" to="143617589#0" depart="18240" end="25740">
    
  </trip>
  <trip id="2087" color="1,1,0" from="-254758120#3" to="228202845#2" depart="18240" end="25500">
  
</trip>
<trip id="2398" color="1,1,0" from="90077241" to="254756520#0" depart="18240" end="20040">
    
  </trip>
  <trip id="2904" color="1,1,0" from="48211196#5" to="-8916792" depart="18240" end="53580" />
  <trip id="4672" color="1,1,0" from="27167762" to="329607867" depart="18240" end="36420">
    
  </trip>
  <trip id="7533" color="1,1,0" from="8915254" to="278995391#0" depart="18240" end="21960">
  
</trip>
<trip id="9630" color="1,1,0" from="8916767#0" to="-254466686#4" depart="18240" end="20040">
    
  </trip>
  <trip id="10190" color="1,1,0" from="86303763#0" to="-283537552#0" depart="18240" end="36300">
    
  </trip>
  <trip id="12381" color="1,1,0" from="142972028#1" to="254971067#0" depart="18240" end="47340">
  
</trip>
<trip id="12753" color="1,1,0" from="111089307#0" to="224373753" depart="18240" end="21780">
    
  </trip>
  <trip id="14439" color="1,1,0" from="31129765" to="-99231475" depart="18240" end="66540">
    
  </trip>
  <trip id="15047" color="1,1,0" from="254396707#6" to="283537552#0" depart="18240" end="20040">
  
</trip>
<trip id="15397" color="1,1,0" from="-24310636#2" to="8916867#2" depart="18240" end="20040">
    
  </trip>
  <trip id="16973" color="1,1,0" from="-133755930#1" to="8922560#0" depart="18240" end="40020">
  
</trip>
<trip id="17313" color="1,1,0" from="-204967525" to="27054213#4" depart="18240" end="50760">
    
  </trip>
  <trip id="4025" color="1,1,0" from="-133781749" to="88463829#0" depart="18300" end="61560">
    
  </trip>
  <trip id="5603" color="1,1,0" from="90077241" to="255168046#0" depart="18300" end="20100">
    
  </trip>
  <trip id="6286" color="1,1,0" from="23959829#0" to="-35675861#1" depart="18300" end="40140">
    
  </trip>
  <trip id="14856" color="1,1,0" from="31129765" to="204884387#0" depart="18300" end="22140">
  
</trip>
<trip id="17010" color="1,1,0" from="142972028#1" to="8922858#1" depart="18300" end="20100">
    
  </trip>
  <trip id="6480" color="1,1,0" from="-27167281#1" to="111319423" depart="18360" end="43620">
    
  </trip>
  <trip id="8086" color="1,1,0" from="8916767#0" to="-8916922#2" depart="18360" end="36420">
    
  </trip>
  <trip id="12035" color="1,1,0" from="90077241" to="364480601#0" depart="18360" end="32820">
    
  </trip>
  <trip id="14205" color="1,1,0" from="31129765" to="254306572#0" depart="18360" end="50940">
    
  </trip>
  <trip id="5361" color="1,1,0" from="-204967525" to="290080809#4" depart="18420" end="20220">
    
  </trip>
  <trip id="5854" color="1,1,0" from="-27570786#2" to="120256350#3" depart="18420" end="54480">
  
</trip>
<trip id="10547" color="1,1,0" from="90077241" to="-254466686#4" depart="18420" end="47460">
    
  </trip>
  <trip id="11956" color="1,1,0" from="-35977367#2" to="286003244#9" depart="18420" end="25800">
    
  </trip>
  <trip id="16953" color="1,1,0" from="-206662304#13" to="-27398032#2" depart="18420" end="36900">
    
  </trip>
  <trip id="5400" color="1,1,0" from="-27029204" to="8917425" depart="18480" end="62040">
    
  </trip>
  <trip id="6377" color="1,1,0" from="86303763#0" to="27397692" depart="18480" end="23100">
    
  </trip>
  <trip id="6687" color="1,1,0" from="142972028#1" to="120256350#3" depart="18480" end="54780">
    
  </trip>
  <trip id="6703" color="1,1,0" from="-35977367#2" to="8919328#0" depart="18480" end="50460">
    
  </trip>
  <trip id="8412" color="1,1,0" from="90077241" to="91181771#3" depart="18480" end="76380">
  
</trip>
<trip id="8660" color="1,1,0" from="23959829#0" to="99231475" depart="18480" end="51060">
  
</trip>
<trip id="9165" color="1,1,0" from="31129765" to="225518502#2" depart="18480" end="46320">
    
  </trip>
  <trip id="9890" color="1,1,0" from="133733582#2" to="-255330036#7" depart="18480" end="39780">
  
</trip>
<trip id="11056" color="1,1,0" from="144489137#0" to="-8916551" depart="18480" end="43800">
    
  </trip>
  <trip id="11214" color="1,1,0" from="-35977367#2" to="-88559680#4" depart="18480" end="44220">
    
  </trip>
  <trip id="11494" color="1,1,0" from="23959829#0" to="255330036#8" depart="18480" end="57720">
  
</trip>
<trip id="12823" color="1,1,0" from="142972028#1" to="287958607#3" depart="18480" end="32940">
  
</trip>
<trip id="13362" color="1,1,0" from="-27570786#2" to="47108420#3" depart="18480" end="46860">
    
  </trip>
  <trip id="13450" color="1,1,0" from="-133755930#1" to="-99231475" depart="18480" end="83220">
  
</trip>
<trip id="14729" color="1,1,0" from="-35977367#2" to="47108420#0" depart="18480" end="20280">
  
</trip>
<trip id="14825" color="1,1,0" from="-160313263#1" to="-47108420#2" depart="18480" end="57300">
    
  </trip>
  <trip id="15334" color="1,1,0" from="31129765" to="47108420#0" depart="18480" end="58380">
  
</trip>
<trip id="1266" color="1,1,0" from="28805009#5" to="27570802#1" depart="18540" end="20340">
  
</trip>
<trip id="2206" color="1,1,0" from="90077241" to="-255330036#10" depart="18540" end="25860">
  
</trip>
<trip id="3673" color="1,1,0" from="-27029204" to="120256350#8" depart="18540" end="61860">
    
  </trip>
  <trip id="3982" color="1,1,0" from="90077241" to="-225518512#1" depart="18540" end="61980">
  
</trip>
<trip id="4771" color="1,1,0" from="-160313263#1" to="-88559691#6" depart="18540" end="58620">
  
</trip>
<trip id="6460" color="1,1,0" from="8916767#0" to="8916922#0" depart="18540" end="66540">
  
</trip>
<trip id="7029" color="1,1,0" from="-206679802#4" to="91181771#5" depart="18540" end="36300">
  
</trip>
<trip id="7039" color="1,1,0" from="90077241" to="225432457" depart="18540" end="65460">
  
</trip>
<trip id="7258" color="1,1,0" from="-8916048" to="225432457" depart="18540" end="77340">
    
  </trip>
  <trip id="7560" color="1,1,0" from="191296172#0" to="247960234#1" depart="18540" end="58500">
  
</trip>
<trip id="8635" color="1,1,0" from="-27029200#2" to="-8916922#2" depart="18540" end="61860">
    
  </trip>
  <trip id="8769" color="1,1,0" from="-204967525" to="225518512#0" depart="18540" end="56160">
  
</trip>
<trip id="9215" color="1,1,0" from="123867455" to="225518512#0" depart="18540" end="21900">
  
</trip>
<trip id="9528" color="1,1,0" from="-35977367#1" to="225847519#4" depart="18540" end="69960">
  
</trip>
<trip id="9756" color="1,1,0" from="90077241" to="224316522#0" depart="18540" end="62340">
  
</trip>
<trip id="10474" color="1,1,0" from="90077241" to="-p3#1" depart="18540" end="36600">
  
</trip>
<trip id="16725" color="1,1,0" from="8916792" to="91181771#0" depart="18540" end="36720">
    
  </trip>
  <trip id="16789" color="1,1,0" from="-133781749" to="224200967" depart="18540" end="44280">
  
</trip>
<trip id="2175" color="1,1,0" from="-30029708#0" to="50690291#1" depart="18600" end="25920" />
  <trip id="2419" color="1,1,0" from="gneE21" to="206662304#13" depart="18600" end="20400">
  
</trip>
<trip id="2932" color="1,1,0" from="-254758120#3" to="283534317#6" depart="18600" end="21840">
    
  </trip>
  <trip id="3720" color="1,1,0" from="225806031#0" to="225518502#3" depart="18600" end="55620">
  
</trip>
<trip id="6494" color="1,1,0" from="111089307#0" to="88466052#1" depart="18600" end="65520">
    
  </trip>
  <trip id="8765" color="1,1,0" from="8916767#0" to="283537552#0" depart="18600" end="20400">
    
  </trip>
  <trip id="12059" color="1,1,0" from="-23883761" to="-242896157#0" depart="18600" end="43320">
    
  </trip>
  <trip id="12184" color="1,1,0" from="224384035#0" to="133733590#0" depart="18600" end="58680">
    
  </trip>
  <trip id="13274" color="1,1,0" from="90077241" to="287958607#3" depart="18600" end="37020">
  
</trip>
<trip id="14583" color="1,1,0" from="27167762" to="254971068" depart="18600" end="53520">
  
</trip>
<trip id="463" color="1,1,0" from="-24335483#9" to="27054205#1" depart="18660" end="60300">
  
</trip>
<trip id="3832" color="1,1,0" from="111089307#0" to="214545530#0" depart="18660" end="21000">
    
  </trip>
  <trip id="4075" color="1,1,0" from="8915254" to="-283537552#0" depart="18660" end="49560">
    
  </trip>
  <trip id="5741" color="1,1,0" from="-206662304#13" to="99231468#0" depart="18660" end="76380">
    
  </trip>
  <trip id="5977" color="1,1,0" from="8915254" to="27397692" depart="18660" end="60780">
  
</trip>
<trip id="7045" color="1,1,0" from="90077241" to="8916922#3" depart="18660" end="66120">
  
</trip>
<trip id="7738" color="1,1,0" from="90077241" to="-8922307" depart="18660" end="65520">
  
</trip>
<trip id="9136" color="1,1,0" from="-254297762#2" to="8922307" depart="18660" end="73320">
  
</trip>
<trip id="11139" color="1,1,0" from="224384035#0" to="-254396709#1" depart="18660" end="39840">
    
  </trip>
  <trip id="16922" color="1,1,0" from="90077241" to="224316522#0" depart="18660" end="62520">
  
</trip>
<trip id="7869" color="1,1,0" from="224384035#0" to="225432462#0" depart="18720" end="64380">
    
  </trip>
  <trip id="13105" color="1,1,0" from="142972028#1" to="224316522#0" depart="18720" end="47580">
    
  </trip>
  <trip id="13938" color="1,1,0" from="-254297762#2" to="133733593#1" depart="18720" end="44280">
  
</trip>
<trip id="1775" color="1,1,0" from="-288065247#1" to="-133733582#3" depart="18960" end="22620">
  
</trip>
<trip id="3791" color="1,1,0" from="-263819574#1" to="8916048" depart="18960" end="49680">
  
</trip>
<trip id="3873" color="1,1,0" from="90077241" to="99231475" depart="18960" end="41100">
    
  </trip>
  <trip id="4480" color="1,1,0" from="254396707#6" to="-202485361#1" depart="18960" end="72180">
  
</trip>
<trip id="4511" color="1,1,0" from="23959829#0" to="364480069" depart="18960" end="40200">
  
</trip>
<trip id="5001" color="1,1,0" from="-24310636#2" to="8919328#1" depart="18960" end="53580">
  
</trip>
<trip id="6134" color="1,1,0" from="90077241" to="120256350#3" depart="18960" end="43320">
    
  </trip>
  <trip id="7312" color="1,1,0" from="90077241" to="88559691#4" depart="18960" end="64980">
    
  </trip>
  <trip id="7722" color="1,1,0" from="-144346316#5" to="8919403#0" depart="18960" end="50400">
    
  </trip>
  <trip id="7889" color="1,1,0" from="8916792" to="110361656" depart="18960" end="36660">
    
  </trip>
  <trip id="8753" color="1,1,0" from="-160313263#1" to="-8916922#0" depart="18960" end="55140">
    
  </trip>
  <trip id="8763" color="1,1,0" from="90077241" to="225432462#0" depart="18960" end="55500">
  
</trip>
<trip id="11277" color="1,1,0" from="-144346316#5" to="47172834#2" depart="18960" end="21540">
    
  </trip>
  <trip id="14589" color="1,1,0" from="8916792" to="p3#0" depart="18960" end="62940">
    
  </trip>
  <trip id="14661" color="1,1,0" from="90077241" to="-8920734" depart="18960" end="50580">
    
  </trip>
  <trip id="16434" color="1,1,0" from="86303763#0" to="133733593#0" depart="18960" end="47280">
  
</trip>
<trip id="16766" color="1,1,0" from="224384035#0" to="8916551" depart="18960" end="42660">
    
  </trip>
  <trip id="17353" color="1,1,0" from="84823308" to="8919616#1" depart="18960" end="24480">
    
  </trip>
  <trip id="1877" color="1,1,0" from="225806031#0" to="32931798#2" depart="19020" end="43140">
  
</trip>
<trip id="4405" color="1,1,0" from="-24335483#9" to="283537552#0" depart="19020" end="48480">
    
  </trip>
  <trip id="4843" color="1,1,0" from="-204967525" to="225518502#3" depart="19020" end="48480">
    
  </trip>
  <trip id="5723" color="1,1,0" from="-204967525" to="225518502#2" depart="19020" end="83100">
    
  </trip>
  <trip id="5973" color="1,1,0" from="8916792" to="27397919" depart="19020" end="54240">
    
  </trip>
  <trip id="7243" color="1,1,0" from="-254297762#2" to="8918460#0" depart="19020" end="55080">
    
  </trip>
  <trip id="8235" color="1,1,0" from="142972028#1" to="8917425" depart="19020" end="39960">
    
  </trip>
  <trip id="9746" color="1,1,0" from="191296172#0" to="26769717#1" depart="19020" end="62280">
    
  </trip>
  <trip id="13718" color="1,1,0" from="31129765" to="228196396" depart="19020" end="36600">
  
</trip>
<trip id="17166" color="1,1,0" from="-23883760" to="8919328#1" depart="19020" end="58320">
  
</trip>
<trip id="3366" color="1,1,0" from="144489137#3" to="254756525#26" depart="19080" end="61500">
  
</trip>
<trip id="1781" color="1,1,0" from="148847001#0" to="8918874" depart="19140" end="64980">
  
</trip>
<trip id="4879" color="1,1,0" from="133733582#2" to="-225518512#1" depart="19140" end="43860">
  
</trip>
<trip id="10141" color="1,1,0" from="-254297762#2" to="-283537552#0" depart="19140" end="43440">
  
</trip>
<trip id="10968" color="1,1,0" from="111089307#0" to="-283537552#0" depart="19140" end="36180">
  
</trip>
<trip id="13012" color="1,1,0" from="-254297762#2" to="8919616#0" depart="19140" end="46980">
  
</trip>
<trip id="14924" color="1,1,0" from="-254297762#2" to="133733593#1" depart="19140" end="36240">
  
</trip>
<trip id="11918" color="1,1,0" from="-133755923#1" to="35977367#2" depart="19200" end="58860">
  
</trip>
<trip id="5140" color="1,1,0" from="8916767#0" to="-8922307" depart="19260" end="67620">
  
</trip>
<trip id="17866" color="1,1,0" from="-88572874#1" to="225847519#4" depart="19320" end="21120" />
  <trip id="3764" color="1,1,0" from="8919058" to="100400947#11" depart="19380" end="49620" />
  <trip id="33" color="1,1,0" from="254396707#6" to="8919020#0" depart="19440" end="47520">
  
</trip>
<trip id="1988" color="1,1,0" from="-254758120#3" to="-24335440#0" depart="19440" end="28140">
  
</trip>
<trip id="2889" color="1,1,0" from="288065247#6" to="254756525#26" depart="19440" end="65040">
  
</trip>
<trip id="3710" color="1,1,0" from="225806031#0" to="35675861#1" depart="19440" end="54540">
    
  </trip>
  <trip id="3806" color="1,1,0" from="-48211196#4" to="133755930#1" depart="19440" end="21240">
  
</trip>
<trip id="3990" color="1,1,0" from="225806031#0" to="364480069" depart="19440" end="66360">
    
  </trip>
  <trip id="4073" color="1,1,0" from="-24335483#9" to="-225432462#1" depart="19440" end="39720">
  
</trip>
<trip id="4612" color="1,1,0" from="31129765" to="111049100#0" depart="19440" end="40140">
    
  </trip>
  <trip id="4853" color="1,1,0" from="90077241" to="-88463830" depart="19440" end="43320">
    
  </trip>
  <trip id="5771" color="1,1,0" from="90077241" to="120256350#8" depart="19440" end="46320">
  
</trip>
<trip id="6897" color="1,1,0" from="-204967525" to="-225432462#1" depart="19440" end="46560">
    
  </trip>
  <trip id="7683" color="1,1,0" from="-24335483#9" to="283537380#2" depart="19440" end="75840">
    
  </trip>
  <trip id="8112" color="1,1,0" from="90077241" to="-8916922#4" depart="19440" end="21420">
  
</trip>
<trip id="11460" color="1,1,0" from="-27029204" to="133733590#0" depart="19440" end="64440">
    
  </trip>
  <trip id="12111" color="1,1,0" from="-27167281#1" to="224200967" depart="19440" end="29520">
  
</trip>
<trip id="12263" color="1,1,0" from="-23883761" to="88597553#2" depart="19440" end="21480">
    
  </trip>
  <trip id="12625" color="1,1,0" from="90077241" to="-35675862" depart="19440" end="36480">
  
</trip>
<trip id="13050" color="1,1,0" from="23959829#0" to="27146036#1" depart="19440" end="50580">
  
</trip>
<trip id="13563" color="1,1,0" from="-23883761" to="255330036#12" depart="19440" end="49620">
    
  </trip>
  <trip id="14136" color="1,1,0" from="111089307#0" to="224316513#0" depart="19440" end="46800">
    
  </trip>
  <trip id="14179" color="1,1,0" from="-35977367#2" to="-175129396#1" depart="19440" end="76800">
    
  </trip>
  <trip id="14453" color="1,1,0" from="90077241" to="8922307" depart="19440" end="54600">
    
  </trip>
  <trip id="15234" color="1,1,0" from="-27167281#1" to="-287958606#1" depart="19440" end="44280">
  
</trip>
<trip id="17980" color="1,1,0" from="-27167281#1" to="-224316527" depart="19440" end="39480">
    
  </trip>
  <trip id="819" color="1,1,0" from="34128713#0" to="154966358" depart="19500" end="47040">
  
</trip>
<trip id="2019" color="1,1,0" from="288065247#6" to="24335483#9" depart="19500" end="51480" />
  <trip id="4260" color="1,1,0" from="191296172#0" to="-283537552#0" depart="19500" end="38760">
    
  </trip>
  <trip id="4823" color="1,1,0" from="224384035#0" to="-88559691#6" depart="19500" end="69960">
  
</trip>
<trip id="4855" color="1,1,0" from="27167762" to="-99231475" depart="19500" end="43380">
    
  </trip>
  <trip id="6939" color="1,1,0" from="-48211062#12" to="-27397937" depart="19500" end="50700">
    
  </trip>
  <trip id="7047" color="1,1,0" from="-133755930#1" to="-88463830" depart="19500" end="43320">
  
</trip>
<trip id="8186" color="1,1,0" from="-204967525" to="99231460" depart="19500" end="47100">
    
  </trip>
  <trip id="8295" color="1,1,0" from="-254758120#3" to="-99231475" depart="19500" end="22980">
    
  </trip>
  <trip id="8418" color="1,1,0" from="31129765" to="8922307" depart="19500" end="47460">
    
  </trip>
  <trip id="11064" color="1,1,0" from="31129765" to="-88559702#0" depart="19500" end="75000">
  
</trip>
<trip id="13008" color="1,1,0" from="90077241" to="133733590#0" depart="19500" end="64440">
  
</trip>
<trip id="13195" color="1,1,0" from="-27029200#2" to="8922164#4" depart="19500" end="21300">
  
</trip>
<trip id="14299" color="1,1,0" from="-27167281#1" to="254758126#3" depart="19500" end="79140">
  
</trip>
<trip id="14698" color="1,1,0" from="90077241" to="364480068#1" depart="19500" end="72540">
    
  </trip>
  <trip id="15260" color="1,1,0" from="86303763#0" to="-202485361#1" depart="19500" end="40800">
    
  </trip>
  <trip id="18169" color="1,1,0" from="144489137#0" to="-88463830" depart="19500" end="21300">
  
</trip>
<trip id="3132" color="1,1,0" from="-133755930#1" to="30029703#4" depart="19560" end="21360">
    
  </trip>
  <trip id="3869" color="1,1,0" from="-27570802#1" to="-242896157#3" depart="19560" end="57120">
    
  </trip>